api/pglib_opf_case2746wp_mp__api.m
%%%%%%%%%%%%%%%%%%%%%%%%%%%%%%%%%%%%%%%%%%%%%%%%%%%%%%%%%%%%%%%%%%%%%%%%%%%
%%%%                                                                  %%%%%
%%%%    IEEE PES Power Grid Library - Optimal Power Flow - v17.07     %%%%%
%%%%          (https://github.com/power-grid-lib/pglib-opf)           %%%%%
%%%%             Benchmark Group - Active Power Increase              %%%%%
%%%%                         27 - June - 2017                         %%%%%
%%%%                                                                  %%%%%
%%%%%%%%%%%%%%%%%%%%%%%%%%%%%%%%%%%%%%%%%%%%%%%%%%%%%%%%%%%%%%%%%%%%%%%%%%%
function mpc = pglib_opf_case2746wp_mp__api
mpc.version = '2';
mpc.baseMVA = 100.0;

%% area data
%	area	refbus
mpc.areas = [
	1	 18;
];

%% bus data
%	bus_i	type	Pd	Qd	Gs	Bs	area	Vm	Va	baseKV	zone	Vmax	Vmin
mpc.bus = [
	1	 1	 0.00	 0.00	 0.0	 0.0	 1	    1.09306	   -1.74768	 220.0	 1	    1.11000	    0.95000;
	2	 1	 0.00	 0.00	 0.0	 0.0	 1	    1.09694	   -0.46266	 220.0	 1	    1.11000	    0.95000;
	3	 1	 0.00	 0.00	 0.0	 0.0	 1	    1.06839	   -6.27464	 220.0	 1	    1.11000	    0.95000;
	4	 1	 0.00	 0.00	 0.0	 0.0	 1	    1.09143	   -4.29620	 220.0	 1	    1.11000	    0.95000;
	5	 1	 0.00	 0.00	 0.0	 0.0	 1	    1.09146	   -4.30181	 220.0	 1	    1.11000	    0.95000;
	6	 1	 0.00	 0.00	 0.0	 0.0	 1	    1.06867	   -5.89985	 220.0	 1	    1.11000	    0.95000;
	7	 1	 0.00	 0.00	 0.0	 0.0	 1	    1.06879	   -5.87953	 220.0	 1	    1.11000	    0.95000;
	8	 1	 0.00	 0.00	 0.0	 0.0	 1	    1.03484	   -2.00473	 400.0	 1	    1.05000	    0.95000;
	9	 1	 0.00	 0.00	 0.0	 0.0	 1	    1.03482	   -1.99309	 400.0	 1	    1.05000	    0.95000;
	10	 1	 0.00	 0.00	 0.0	 0.0	 1	    1.05319	   -7.80550	 220.0	 1	    1.11000	    0.95000;
	11	 1	 0.00	 0.00	 0.0	 0.0	 1	    1.05312	   -7.81000	 220.0	 1	    1.11000	    0.95000;
	12	 1	 0.00	 0.00	 0.0	 0.0	 1	    1.05313	   -7.80148	 220.0	 1	    1.11000	    0.95000;
	13	 1	 0.00	 0.00	 0.0	 0.0	 1	    1.03847	   -2.95595	 400.0	 1	    1.05000	    0.95000;
	14	 1	 0.00	 0.00	 0.0	 0.0	 1	    1.03849	   -2.94705	 400.0	 1	    1.05000	    0.95000;
	15	 1	 0.00	 0.00	 0.0	 0.0	 1	    1.03549	   -2.19446	 400.0	 1	    1.05000	    0.95000;
	16	 1	 0.00	 0.00	 0.0	 0.0	 1	    1.03549	   -2.19446	 400.0	 1	    1.05000	    0.95000;
	17	 2	 11.14	 40.00	 0.0	 0.0	 1	    1.11000	   -0.41200	 220.0	 1	    1.11000	    0.95000;
	18	 2	 14.17	 40.00	 0.0	 0.0	 1	    1.11000	   -0.41114	 220.0	 1	    1.11000	    0.95000;
	19	 1	 0.00	 0.00	 0.0	 0.0	 1	    1.09329	   -3.70265	 220.0	 1	    1.11000	    0.95000;
	20	 1	 0.00	 0.00	 0.0	 0.0	 1	    1.09332	   -3.70109	 220.0	 1	    1.11000	    0.95000;
	21	 1	 0.00	 0.00	 0.0	 0.0	 1	    1.07249	   -5.09281	 220.0	 1	    1.11000	    0.95000;
	22	 1	 0.00	 0.00	 0.0	 0.0	 1	    1.07245	   -5.09274	 220.0	 1	    1.11000	    0.95000;
	23	 1	 0.00	 0.00	 0.0	 0.0	 1	    1.05506	   -7.72314	 220.0	 1	    1.11000	    0.95000;
	24	 1	 0.00	 0.00	 0.0	 0.0	 1	    1.09461	   -2.78003	 220.0	 1	    1.11000	    0.95000;
	25	 1	 0.00	 0.00	 0.0	 0.0	 1	    1.02403	   -5.37271	 400.0	 1	    1.05000	    0.95000;
	26	 2	 47.32	 72.05	 0.0	 0.0	 1	    1.10192	   -1.40016	 220.0	 1	    1.11000	    0.95000;
	27	 2	 86.55	 122.06	 0.0	 0.0	 1	    1.10398	   -0.13320	 220.0	 1	    1.11000	    0.95000;
	28	 3	 60.74	 110.00	 0.0	 0.0	 1	    1.03932	    0.00000	 400.0	 1	    1.05000	    0.95000;
	29	 2	 60.84	 90.00	 0.0	 0.0	 1	    1.03939	   -0.00480	 400.0	 1	    1.05000	    0.95000;
	30	 1	 0.00	 0.00	 0.0	 0.0	 1	    1.05807	   -8.64855	 220.0	 1	    1.11000	    0.95000;
	31	 1	 0.00	 0.00	 0.0	 0.0	 1	    1.04069	   -1.60206	 400.0	 1	    1.05000	    0.95000;
	32	 1	 0.00	 0.00	 0.0	 0.0	 1	    1.05088	   -8.18339	 220.0	 1	    1.11000	    0.95000;
	33	 1	 0.00	 0.00	 0.0	 0.0	 1	    1.09461	   -2.77906	 220.0	 1	    1.11000	    0.95000;
	34	 1	 0.00	 0.00	 0.0	 0.0	 1	    1.09526	   -5.79672	 220.0	 1	    1.11000	    0.95000;
	35	 1	 0.00	 0.00	 0.0	 0.0	 1	    1.10058	   -0.64710	 220.0	 2	    1.11000	    0.95000;
	36	 1	 0.00	 0.00	 0.0	 0.0	 1	    1.10657	   -2.43416	 220.0	 2	    1.11000	    0.95000;
	37	 1	 0.00	 0.00	 0.0	 0.0	 1	    1.10770	   -0.69660	 220.0	 2	    1.11000	    0.95000;
	38	 1	 0.00	 0.00	 0.0	 0.0	 1	    1.10771	   -0.70232	 220.0	 2	    1.11000	    0.95000;
	39	 1	 0.00	 0.00	 0.0	 0.0	 1	    1.08972	   -0.57877	 220.0	 2	    1.11000	    0.95000;
	40	 1	 0.00	 0.00	 0.0	 0.0	 1	    1.10761	   -2.76684	 220.0	 2	    1.11000	    0.95000;
	41	 1	 0.00	 0.00	 0.0	 0.0	 1	    1.10759	   -2.76784	 220.0	 2	    1.11000	    0.95000;
	42	 1	 0.00	 0.00	 0.0	 0.0	 1	    1.04209	   -2.41476	 400.0	 2	    1.05000	    0.95000;
	43	 2	 11.44	 0.00	 0.0	 0.0	 1	    1.11000	    0.22441	 220.0	 2	    1.11000	    0.95000;
	44	 2	 24.00	 0.00	 0.0	 0.0	 1	    1.11000	    0.22558	 220.0	 2	    1.11000	    0.95000;
	45	 2	 20.00	 0.00	 0.0	 0.0	 1	    1.04534	    3.76396	 400.0	 2	    1.05000	    0.95000;
	46	 1	 0.00	 0.00	 0.0	 0.0	 1	    1.04536	    3.74780	 400.0	 2	    1.05000	    0.95000;
	47	 1	 0.00	 0.00	 0.0	 0.0	 1	    1.10449	   -3.27308	 220.0	 2	    1.11000	    0.95000;
	48	 1	 0.00	 0.00	 0.0	 0.0	 1	    1.04651	   -7.58682	 400.0	 2	    1.05000	    0.95000;
	49	 1	 0.00	 0.00	 0.0	 0.0	 1	    1.04650	   -7.59508	 400.0	 2	    1.05000	    0.95000;
	50	 1	 0.00	 0.00	 0.0	 0.0	 1	    1.05000	    2.14038	 400.0	 2	    1.05000	    0.95000;
	51	 1	 0.00	 0.00	 0.0	 0.0	 1	    1.09346	    1.50206	 220.0	 2	    1.11000	    0.95000;
	52	 1	 0.00	 0.00	 0.0	 0.0	 1	    1.09339	    1.51561	 220.0	 2	    1.11000	    0.95000;
	53	 1	 0.00	 0.00	 0.0	 0.0	 1	    1.03942	   -0.70374	 400.0	 2	    1.05000	    0.95000;
	54	 1	 0.00	 0.00	 0.0	 0.0	 1	    1.03942	   -0.71344	 400.0	 2	    1.05000	    0.95000;
	55	 2	 12.00	 0.00	 0.0	 0.0	 1	    1.11000	    0.48545	 220.0	 2	    1.11000	    0.95000;
	56	 2	 11.44	 0.00	 0.0	 0.0	 1	    1.11000	    0.50782	 220.0	 2	    1.11000	    0.95000;
	57	 2	 12.00	 0.00	 0.0	 0.0	 1	    1.03925	   -1.94689	 400.0	 2	    1.05000	    0.95000;
	58	 2	 11.44	 0.00	 0.0	 0.0	 1	    1.03926	   -1.94951	 400.0	 2	    1.05000	    0.95000;
	59	 2	 169.59	 60.00	 0.0	 0.0	 1	    1.10999	   -0.12198	 220.0	 2	    1.11000	    0.95000;
	60	 1	 0.00	 0.00	 0.0	 0.0	 1	    1.10997	   -0.12261	 220.0	 2	    1.11000	    0.95000;
	61	 1	 0.00	 0.00	 0.0	 0.0	 1	    1.10545	   -2.91541	 220.0	 2	    1.11000	    0.95000;
	62	 1	 0.00	 0.00	 0.0	 0.0	 1	    1.10750	   -1.50479	 220.0	 2	    1.11000	    0.95000;
	63	 1	 0.00	 0.00	 0.0	 0.0	 1	    1.10749	   -1.50060	 220.0	 2	    1.11000	    0.95000;
	64	 1	 0.00	 0.00	 0.0	 0.0	 1	    1.04973	   -3.98233	 400.0	 2	    1.05000	    0.95000;
	65	 1	 0.00	 0.00	 0.0	 0.0	 1	    1.04977	   -3.99665	 400.0	 2	    1.05000	    0.95000;
	66	 1	 0.00	 0.00	 0.0	 0.0	 1	    1.10088	   -1.41423	 220.0	 2	    1.11000	    0.95000;
	67	 1	 0.00	 0.00	 0.0	 0.0	 1	    1.10275	   -1.21218	 220.0	 2	    1.11000	    0.95000;
	68	 1	 0.00	 0.00	 0.0	 0.0	 1	    1.08917	    3.75425	 220.0	 2	    1.11000	    0.95000;
	69	 1	 0.00	 0.00	 0.0	 0.0	 1	    1.09924	   -2.95386	 220.0	 3	    1.11000	    0.95000;
	70	 1	 7.12	 0.00	 0.0	 0.0	 1	    1.10997	   -2.83518	 220.0	 3	    1.11000	    0.95000;
	71	 1	 8.41	 0.93	 0.0	 0.0	 1	    1.10992	   -2.83149	 220.0	 3	    1.11000	    0.95000;
	72	 1	 0.00	 0.00	 0.0	 0.0	 1	    1.10404	   -2.56788	 220.0	 3	    1.11000	    0.95000;
	73	 1	 0.00	 0.00	 0.0	 0.0	 1	    1.10410	   -2.55213	 220.0	 3	    1.11000	    0.95000;
	74	 1	 0.00	 0.00	 0.0	 0.0	 1	    1.10715	   -0.58015	 220.0	 3	    1.11000	    0.95000;
	75	 1	 0.00	 0.00	 0.0	 0.0	 1	    1.10713	   -0.58434	 220.0	 3	    1.11000	    0.95000;
	76	 1	 0.00	 0.00	 0.0	 0.0	 1	    1.10724	   -2.92125	 220.0	 3	    1.11000	    0.95000;
	77	 1	 0.00	 0.00	 0.0	 0.0	 1	    1.10722	   -2.92645	 220.0	 3	    1.11000	    0.95000;
	78	 2	 27.33	 70.00	 0.0	 0.0	 1	    1.10950	   -1.49418	 220.0	 3	    1.11000	    0.95000;
	79	 2	 9.11	 21.00	 0.0	 0.0	 1	    1.10928	   -1.64535	 220.0	 3	    1.11000	    0.95000;
	80	 1	 10.46	 2.61	 0.0	 0.0	 1	    1.10169	   -2.25737	 220.0	 3	    1.11000	    0.95000;
	81	 1	 0.00	 0.00	 0.0	 0.0	 1	    1.10170	   -2.26109	 220.0	 3	    1.11000	    0.95000;
	82	 2	 35.43	 108.00	 0.0	 0.0	 1	    1.03971	   -4.95943	 400.0	 3	    1.05000	    0.95000;
	83	 1	 0.00	 0.00	 0.0	 0.0	 1	    1.11000	   -5.92810	 220.0	 3	    1.11000	    0.95000;
	84	 1	 0.00	 0.00	 0.0	 0.0	 1	    1.10668	   -0.64765	 220.0	 3	    1.11000	    0.95000;
	85	 1	 0.00	 0.00	 0.0	 0.0	 1	    1.10670	   -0.65915	 220.0	 3	    1.11000	    0.95000;
	86	 1	 38.36	 12.35	 0.0	 0.0	 1	    1.10010	   -2.69561	 220.0	 3	    1.11000	    0.95000;
	87	 1	 0.00	 0.00	 0.0	 0.0	 1	    1.10008	   -2.69997	 220.0	 3	    1.11000	    0.95000;
	88	 1	 0.00	 0.00	 0.0	 0.0	 1	    1.10633	   -0.82566	 220.0	 3	    1.11000	    0.95000;
	89	 1	 0.00	 0.00	 0.0	 0.0	 1	    1.10635	   -0.82876	 220.0	 3	    1.11000	    0.95000;
	90	 1	 0.00	 0.00	 0.0	 0.0	 1	    1.10280	   -2.32353	 220.0	 3	    1.11000	    0.95000;
	91	 1	 0.00	 0.00	 0.0	 0.0	 1	    1.10279	   -2.32509	 220.0	 3	    1.11000	    0.95000;
	92	 1	 0.00	 0.00	 0.0	 0.0	 1	    1.04134	   -1.33559	 400.0	 3	    1.05000	    0.95000;
	93	 1	 0.00	 0.00	 0.0	 0.0	 1	    1.04134	   -1.33653	 400.0	 3	    1.05000	    0.95000;
	94	 1	 0.00	 0.00	 0.0	 0.0	 1	    1.10999	   -0.33037	 220.0	 3	    1.11000	    0.95000;
	95	 1	 0.00	 0.00	 0.0	 0.0	 1	    1.11000	   -0.33143	 220.0	 3	    1.11000	    0.95000;
	96	 1	 0.00	 0.00	 0.0	 0.0	 1	    1.10823	   -2.53948	 220.0	 3	    1.11000	    0.95000;
	97	 1	 0.00	 0.00	 0.0	 0.0	 1	    1.10825	   -2.55628	 220.0	 3	    1.11000	    0.95000;
	98	 1	 16.23	 7.27	 0.0	 0.0	 1	    1.10589	   -2.17426	 220.0	 3	    1.11000	    0.95000;
	99	 1	 7.86	 0.26	 0.0	 0.0	 1	    1.10588	   -2.17726	 220.0	 3	    1.11000	    0.95000;
	100	 1	 0.00	 0.00	 0.0	 0.0	 1	    1.11000	   -2.81259	 220.0	 3	    1.11000	    0.95000;
	101	 1	 0.00	 0.00	 0.0	 0.0	 1	    1.11000	   -2.81888	 220.0	 3	    1.11000	    0.95000;
	102	 1	 0.00	 0.00	 0.0	 0.0	 1	    1.10541	   -3.38634	 220.0	 3	    1.11000	    0.95000;
	103	 1	 0.00	 0.00	 0.0	 0.0	 1	    1.10536	   -3.38986	 220.0	 3	    1.11000	    0.95000;
	104	 2	 14.17	 40.00	 0.0	 0.0	 1	    1.11000	    0.42164	 220.0	 3	    1.11000	    0.95000;
	105	 2	 14.17	 40.00	 0.0	 0.0	 1	    1.11000	    0.44472	 220.0	 3	    1.11000	    0.95000;
	106	 2	 7.09	 18.00	 0.0	 0.0	 1	    1.10797	   -0.43737	 220.0	 3	    1.11000	    0.95000;
	107	 2	 8.10	 15.00	 0.0	 0.0	 1	    1.10807	   -0.43238	 220.0	 3	    1.11000	    0.95000;
	108	 1	 1.04	 0.00	 0.0	 0.0	 1	    1.10399	   -2.42791	 220.0	 3	    1.11000	    0.95000;
	109	 1	 1.26	 0.00	 0.0	 0.0	 1	    1.10403	   -2.42672	 220.0	 3	    1.11000	    0.95000;
	110	 1	 0.00	 0.00	 0.0	 0.0	 1	    1.10828	   -3.05013	 220.0	 3	    1.11000	    0.95000;
	111	 1	 0.00	 0.00	 0.0	 0.0	 1	    1.10291	   -1.29481	 220.0	 3	    1.11000	    0.95000;
	112	 1	 0.00	 0.00	 0.0	 0.0	 1	    1.10292	   -1.29960	 220.0	 3	    1.11000	    0.95000;
	113	 1	 0.00	 0.00	 0.0	 0.0	 1	    1.10141	   -2.52335	 220.0	 3	    1.11000	    0.95000;
	114	 1	 0.00	 0.00	 0.0	 0.0	 1	    1.10146	   -2.51559	 220.0	 3	    1.11000	    0.95000;
	115	 1	 0.00	 0.00	 0.0	 0.0	 1	    1.04117	   -3.20272	 400.0	 3	    1.05000	    0.95000;
	116	 2	 0.00	 0.00	 0.0	 0.0	 1	    1.10999	   -1.37651	 220.0	 3	    1.11000	    0.95000;
	117	 2	 8.10	 15.00	 0.0	 0.0	 1	    1.11000	   -1.36604	 220.0	 3	    1.11000	    0.95000;
	118	 2	 5.57	 10.00	 0.0	 0.0	 1	    1.10671	   -2.77271	 220.0	 3	    1.11000	    0.95000;
	119	 1	 0.00	 0.00	 0.0	 0.0	 1	    1.10673	   -2.77777	 220.0	 3	    1.11000	    0.95000;
	120	 1	 0.00	 0.00	 0.0	 0.0	 1	    1.04998	   -3.35993	 400.0	 3	    1.05000	    0.95000;
	121	 1	 0.00	 0.00	 0.0	 0.0	 1	    1.05000	   -3.35477	 400.0	 3	    1.05000	    0.95000;
	122	 1	 0.00	 0.00	 0.0	 0.0	 1	    1.04999	   -2.79695	 400.0	 3	    1.05000	    0.95000;
	123	 1	 0.00	 0.00	 0.0	 0.0	 1	    1.05000	   -2.79355	 400.0	 3	    1.05000	    0.95000;
	124	 1	 0.00	 0.00	 0.0	 0.0	 1	    1.10730	   -3.25262	 220.0	 3	    1.11000	    0.95000;
	125	 2	 18.57	 21.86	 0.0	 0.0	 1	    1.11000	    0.26862	 220.0	 3	    1.11000	    0.95000;
	126	 2	 28.82	 34.29	 0.0	 0.0	 1	    1.10998	    0.25268	 220.0	 3	    1.11000	    0.95000;
	127	 2	 28.35	 66.00	 0.0	 0.0	 1	    1.03470	   -2.84545	 400.0	 3	    1.05000	    0.95000;
	128	 1	 0.00	 0.00	 0.0	 0.0	 1	    1.03477	   -2.84088	 400.0	 3	    1.05000	    0.95000;
	129	 1	 0.00	 0.00	 0.0	 0.0	 1	    1.09956	   -2.78592	 220.0	 3	    1.11000	    0.95000;
	130	 1	 0.00	 0.00	 0.0	 0.0	 1	    1.09959	   -2.77960	 220.0	 3	    1.11000	    0.95000;
	131	 1	 0.00	 0.00	 0.0	 0.0	 1	    1.10158	   -2.43170	 220.0	 3	    1.11000	    0.95000;
	132	 2	 3.04	 18.00	 0.0	 0.0	 1	    1.10774	   -2.71415	 220.0	 3	    1.11000	    0.95000;
	133	 2	 2.02	 6.00	 0.0	 0.0	 1	    1.10745	   -2.82385	 220.0	 3	    1.11000	    0.95000;
	134	 2	 15.64	 12.88	 0.0	 0.0	 1	    1.10422	   -4.83458	 220.0	 4	    1.11000	    0.95000;
	135	 2	 5.25	 -0.36	 0.0	 0.0	 1	    1.10418	   -4.85161	 220.0	 4	    1.11000	    0.95000;
	136	 1	 0.00	 0.00	 0.0	 0.0	 1	    1.08919	  -14.25202	 220.0	 4	    1.11000	    0.95000;
	137	 1	 0.00	 0.00	 0.0	 0.0	 1	    1.09264	  -13.56674	 220.0	 4	    1.11000	    0.95000;
	138	 1	 0.00	 0.00	 0.0	 0.0	 1	    1.01462	  -10.94909	 400.0	 4	    1.05000	    0.95000;
	139	 1	 0.00	 0.00	 0.0	 0.0	 1	    1.01465	  -10.94825	 400.0	 4	    1.05000	    0.95000;
	140	 1	 0.00	 0.00	 0.0	 0.0	 1	    1.09793	  -14.31127	 220.0	 4	    1.11000	    0.95000;
	141	 1	 0.00	 0.00	 0.0	 0.0	 1	    1.10306	  -17.31435	 220.0	 4	    1.11000	    0.95000;
	142	 1	 0.00	 0.00	 0.0	 0.0	 1	    1.10306	  -17.31435	 220.0	 4	    1.11000	    0.95000;
	143	 1	 0.00	 0.00	 0.0	 0.0	 1	    1.11000	  -15.95081	 220.0	 4	    1.11000	    0.95000;
	144	 1	 0.00	 0.00	 0.0	 0.0	 1	    1.10052	  -13.78941	 220.0	 4	    1.11000	    0.95000;
	145	 1	 0.00	 0.00	 0.0	 0.0	 1	    1.10052	  -13.78941	 220.0	 4	    1.11000	    0.95000;
	146	 2	 10.95	 -0.47	 0.0	 0.0	 1	    1.10297	   -6.25957	 220.0	 4	    1.11000	    0.95000;
	147	 2	 10.81	 -0.47	 0.0	 0.0	 1	    1.10297	   -6.27087	 220.0	 4	    1.11000	    0.95000;
	148	 2	 11.64	 6.86	 0.0	 0.0	 1	    1.10725	  -16.16230	 220.0	 4	    1.11000	    0.95000;
	149	 1	 1.65	 3.04	 0.0	 0.0	 1	    1.10722	  -16.15934	 220.0	 4	    1.11000	    0.95000;
	150	 2	 8.09	 -0.38	 0.0	 0.0	 1	    1.01888	  -13.96401	 400.0	 4	    1.05000	    0.95000;
	151	 2	 16.17	 -0.76	 0.0	 0.0	 1	    1.01888	  -13.96075	 400.0	 4	    1.05000	    0.95000;
	152	 1	 0.00	 0.00	 0.0	 0.0	 1	    1.07714	  -16.66635	 220.0	 4	    1.11000	    0.95000;
	153	 1	 0.00	 0.00	 0.0	 0.0	 1	    1.09235	  -15.39512	 220.0	 4	    1.11000	    0.95000;
	154	 1	 0.00	 0.00	 0.0	 0.0	 1	    1.09242	  -15.38820	 220.0	 4	    1.11000	    0.95000;
	155	 2	 30.55	 -3.56	 0.0	 0.0	 1	    1.10813	  -10.97989	 220.0	 4	    1.11000	    0.95000;
	156	 2	 14.68	 -3.57	 0.0	 0.0	 1	    1.11000	   -8.92137	 220.0	 4	    1.11000	    0.95000;
	157	 1	 0.00	 0.00	 0.0	 0.0	 1	    1.10813	  -10.97989	 220.0	 4	    1.11000	    0.95000;
	158	 1	 0.00	 0.00	 0.0	 0.0	 1	    1.00746	   -9.59769	 400.0	 4	    1.05000	    0.95000;
	159	 2	 7.38	 -1.78	 0.0	 0.0	 1	    1.00740	   -9.59205	 400.0	 4	    1.05000	    0.95000;
	160	 1	 0.00	 0.00	 0.0	 0.0	 1	    1.09941	  -17.60702	 220.0	 4	    1.11000	    0.95000;
	161	 1	 0.00	 0.00	 0.0	 0.0	 1	    1.09941	  -17.60702	 220.0	 4	    1.11000	    0.95000;
	162	 1	 0.00	 0.00	 0.0	 0.0	 1	    1.02201	  -10.80876	 400.0	 4	    1.05000	    0.95000;
	163	 1	 0.00	 0.00	 0.0	 0.0	 1	    1.02432	   -9.91792	 400.0	 4	    1.05000	    0.95000;
	164	 1	 0.00	 0.00	 0.0	 0.0	 1	    1.02430	   -9.92170	 400.0	 4	    1.05000	    0.95000;
	165	 2	 4.29	 -8.96	 0.0	 0.0	 1	    1.10295	   -6.13687	 220.0	 4	    1.11000	    0.95000;
	166	 2	 23.36	 7.18	 0.0	 0.0	 1	    1.10301	   -6.12987	 220.0	 4	    1.11000	    0.95000;
	167	 1	 0.00	 0.00	 0.0	 0.0	 1	    1.10295	   -6.13687	 220.0	 4	    1.11000	    0.95000;
	168	 1	 0.00	 0.00	 0.0	 0.0	 1	    1.08713	  -18.44098	 220.0	 4	    1.11000	    0.95000;
	169	 1	 0.00	 0.00	 0.0	 0.0	 1	    1.10254	  -17.47100	 220.0	 4	    1.11000	    0.95000;
	170	 1	 0.00	 0.00	 0.0	 0.0	 1	    1.09461	  -15.62806	 220.0	 4	    1.11000	    0.95000;
	171	 1	 0.00	 0.00	 0.0	 0.0	 1	    1.09453	  -15.62330	 220.0	 4	    1.11000	    0.95000;
	172	 1	 0.00	 0.00	 0.0	 0.0	 1	    1.00659	  -16.12882	 400.0	 4	    1.05000	    0.95000;
	173	 1	 0.00	 0.00	 0.0	 0.0	 1	    1.00659	  -16.12882	 400.0	 4	    1.05000	    0.95000;
	174	 1	 0.00	 0.00	 0.0	 0.0	 1	    1.07309	  -14.86560	 220.0	 4	    1.11000	    0.95000;
	175	 1	 0.00	 0.00	 0.0	 0.0	 1	    1.07312	  -14.86689	 220.0	 4	    1.11000	    0.95000;
	176	 1	 0.00	 0.00	 0.0	 0.0	 1	    1.09354	  -16.05873	 220.0	 4	    1.11000	    0.95000;
	177	 1	 0.00	 0.00	 0.0	 0.0	 1	    1.09461	  -13.49268	 220.0	 4	    1.11000	    0.95000;
	178	 1	 0.00	 0.00	 0.0	 0.0	 1	    1.09462	  -13.48202	 220.0	 4	    1.11000	    0.95000;
	179	 1	 0.00	 0.00	 0.0	 0.0	 1	    1.09581	  -12.46412	 220.0	 4	    1.11000	    0.95000;
	180	 1	 0.00	 0.00	 0.0	 0.0	 1	    1.09581	  -12.46412	 220.0	 4	    1.11000	    0.95000;
	181	 1	 0.00	 0.00	 0.0	 0.0	 1	    1.07028	  -15.77477	 220.0	 4	    1.11000	    0.95000;
	182	 1	 0.00	 0.00	 0.0	 0.0	 1	    1.04890	  -12.29404	 220.0	 5	    1.11000	    0.95000;
	183	 1	 0.00	 0.00	 0.0	 0.0	 1	    1.10249	  -14.56696	 220.0	 5	    1.11000	    0.95000;
	184	 1	 0.00	 0.00	 0.0	 0.0	 1	    1.02634	  -13.04573	 400.0	 5	    1.05000	    0.95000;
	185	 1	 0.00	 0.00	 0.0	 0.0	 1	    1.02637	  -13.04950	 400.0	 5	    1.05000	    0.95000;
	186	 1	 0.00	 0.00	 0.0	 0.0	 1	    1.01591	  -11.04870	 400.0	 5	    1.05000	    0.95000;
	187	 1	 0.00	 0.00	 0.0	 0.0	 1	    1.01593	  -11.04995	 400.0	 5	    1.05000	    0.95000;
	188	 1	 0.00	 0.00	 0.0	 0.0	 1	    1.02141	  -14.43279	 220.0	 5	    1.11000	    0.95000;
	189	 1	 0.00	 0.00	 0.0	 0.0	 1	    1.02148	  -14.43642	 220.0	 5	    1.11000	    0.95000;
	190	 1	 0.00	 0.00	 0.0	 0.0	 1	    1.07700	  -12.91663	 220.0	 5	    1.11000	    0.95000;
	191	 1	 0.00	 0.00	 0.0	 0.0	 1	    1.07686	  -12.91859	 220.0	 5	    1.11000	    0.95000;
	192	 1	 0.00	 0.00	 0.0	 0.0	 1	    0.99507	  -10.39108	 400.0	 5	    1.05000	    0.95000;
	193	 1	 0.00	 0.00	 0.0	 0.0	 1	    1.05842	  -11.61913	 220.0	 5	    1.11000	    0.95000;
	194	 1	 0.00	 0.00	 0.0	 0.0	 1	    1.05850	  -11.61613	 220.0	 5	    1.11000	    0.95000;
	195	 1	 0.00	 0.00	 0.0	 0.0	 1	    1.00861	  -11.67852	 400.0	 5	    1.05000	    0.95000;
	196	 1	 0.00	 0.00	 0.0	 0.0	 1	    1.00857	  -11.68001	 400.0	 5	    1.05000	    0.95000;
	197	 1	 0.00	 0.00	 0.0	 0.0	 1	    1.06632	   -9.61754	 220.0	 5	    1.11000	    0.95000;
	198	 1	 0.00	 0.00	 0.0	 0.0	 1	    1.06637	   -9.60990	 220.0	 5	    1.11000	    0.95000;
	199	 1	 0.00	 0.00	 0.0	 0.0	 1	    1.02657	  -11.38783	 400.0	 5	    1.05000	    0.95000;
	200	 1	 0.00	 0.00	 0.0	 0.0	 1	    1.02656	  -11.38763	 400.0	 5	    1.05000	    0.95000;
...
];

%% generator data
%	bus	Pg	Qg	Qmax	Qmin	Vg	mBase	status	Pmax	Pmin	Pc1	Pc2	Qc1min	Qc1max	Qc2min	Qc2max	ramp_agc	ramp_10	ramp_30	ramp_q	apf
mpc.gen = [
	17	 379.0	 109.236	 190.0	 -190.0	 1.11	 233.2	 1	 379	 70.0	 0.0	 0.0	 0.0	 0.0	 0.0	 0.0	 0.0	 0.0	 0.0	 0.0	 0.0; % COW
	18	 254.0	 33.733	 127.0	 -127.0	 1.11	 233.2	 1	 254	 70.0	 0.0	 0.0	 0.0	 0.0	 0.0	 0.0	 0.0	 0.0	 0.0	 0.0	 0.0; % NG
	26	 145.0	 71.231	 220.0	 -218.0	 1.10192	 430.5	 1	 435	 145.0	 0.0	 0.0	 0.0	 0.0	 0.0	 0.0	 0.0	 0.0	 0.0	 0.0	 0.0; % COW
	26	 145.0	 80.418	 220.0	 -176.0	 1.10192	 421.9	 1	 352	 145.0	 0.0	 0.0	 0.0	 0.0	 0.0	 0.0	 0.0	 0.0	 0.0	 0.0	 0.0; % NG
	27	 145.0	 62.058	 220.0	 -209.0	 1.10398	 421.9	 1	 417	 145.0	 0.0	 0.0	 0.0	 0.0	 0.0	 0.0	 0.0	 0.0	 0.0	 0.0	 0.0; % NG
	27	 147.932	 65.909	 220.0	 -194.0	 1.10398	 430.5	 1	 388	 145.0	 0.0	 0.0	 0.0	 0.0	 0.0	 0.0	 0.0	 0.0	 0.0	 0.0	 0.0; % NG
	27	 312.0	 76.121	 220.0	 -156.0	 1.10398	 430.5	 1	 312	 145.0	 0.0	 0.0	 0.0	 0.0	 0.0	 0.0	 0.0	 0.0	 0.0	 0.0	 0.0; % NG
	28	 348.0	 -74.703	 220.0	 -174.0	 1.03932	 430.5	 1	 348	 145.0	 0.0	 0.0	 0.0	 0.0	 0.0	 0.0	 0.0	 0.0	 0.0	 0.0	 0.0; % NG
	28	 333.0	 -68.426	 220.0	 -167.0	 1.03932	 430.5	 1	 333	 145.0	 0.0	 0.0	 0.0	 0.0	 0.0	 0.0	 0.0	 0.0	 0.0	 0.0	 0.0; % NG
	28	 145.0	 -60.383	 220.0	 -158.0	 1.03932	 430.5	 1	 316	 145.0	 0.0	 0.0	 0.0	 0.0	 0.0	 0.0	 0.0	 0.0	 0.0	 0.0	 0.0; % NG
	29	 145.0	 -34.171	 257.0	 -257.0	 1.03939	 430.5	 1	 514	 145.0	 0.0	 0.0	 0.0	 0.0	 0.0	 0.0	 0.0	 0.0	 0.0	 0.0	 0.0; % COW
	29	 311.316	 -6.276	 220.0	 -189.0	 1.03939	 430.5	 1	 378	 145.0	 0.0	 0.0	 0.0	 0.0	 0.0	 0.0	 0.0	 0.0	 0.0	 0.0	 0.0; % NG
	29	 145.0	 -64.203	 355.0	 -355.0	 1.03939	 430.5	 1	 710	 145.0	 0.0	 0.0	 0.0	 0.0	 0.0	 0.0	 0.0	 0.0	 0.0	 0.0	 0.0; % COW
	43	 178.0	 44.769	 120.0	 -89.0	 1.11	 246.2	 1	 178	 67.5	 0.0	 0.0	 0.0	 0.0	 0.0	 0.0	 0.0	 0.0	 0.0	 0.0	 0.0; % COW
	43	 0.0	 0.0	 120.0	 -69.0	 1.11	 275.3	 0	 138	 67.5	 0.0	 0.0	 0.0	 0.0	 0.0	 0.0	 0.0	 0.0	 0.0	 0.0	 0.0; % COW
	43	 67.5	 38.168	 120.0	 -118.0	 1.11	 275.3	 1	 235	 67.5	 0.0	 0.0	 0.0	 0.0	 0.0	 0.0	 0.0	 0.0	 0.0	 0.0	 0.0; % NG
	44	 67.5	 6.448	 120.0	 -78.0	 1.11	 255.0	 1	 156	 67.5	 0.0	 0.0	 0.0	 0.0	 0.0	 0.0	 0.0	 0.0	 0.0	 0.0	 0.0; % NG
	44	 67.5	 -23.63	 127.0	 -127.0	 1.11	 255.0	 1	 253	 67.5	 0.0	 0.0	 0.0	 0.0	 0.0	 0.0	 0.0	 0.0	 0.0	 0.0	 0.0; % NG
	44	 0.0	 0.0	 120.0	 -20.0	 1.11	 255.0	 0	 20	 135.0	 0.0	 0.0	 0.0	 0.0	 0.0	 0.0	 0.0	 0.0	 0.0	 0.0	 0.0; % NG
	45	 0.0	 0.0	 426.0	 -426.0	 1.04534	 610.3	 0	 851	 175.0	 0.0	 0.0	 0.0	 0.0	 0.0	 0.0	 0.0	 0.0	 0.0	 0.0	 0.0; % COW
	45	 1621.0	 -90.977	 811.0	 -811.0	 1.04534	 610.3	 1	 1621	 175.0	 0.0	 0.0	 0.0	 0.0	 0.0	 0.0	 0.0	 0.0	 0.0	 0.0	 0.0; % COW
	55	 155.036	 -26.932	 185.0	 -185.0	 1.11	 255.0	 1	 370	 65.0	 0.0	 0.0	 0.0	 0.0	 0.0	 0.0	 0.0	 0.0	 0.0	 0.0	 0.0; % NG
	56	 318.0	 -33.714	 159.0	 -159.0	 1.11	 255.0	 1	 318	 65.0	 0.0	 0.0	 0.0	 0.0	 0.0	 0.0	 0.0	 0.0	 0.0	 0.0	 0.0; % COW
	56	 213.0	 -11.058	 120.0	 -107.0	 1.11	 255.0	 1	 213	 65.0	 0.0	 0.0	 0.0	 0.0	 0.0	 0.0	 0.0	 0.0	 0.0	 0.0	 0.0; % NG
	57	 65.0	 -95.934	 314.0	 -314.0	 1.03925	 255.0	 1	 627	 65.0	 0.0	 0.0	 0.0	 0.0	 0.0	 0.0	 0.0	 0.0	 0.0	 0.0	 0.0; % COW
	58	 0.0	 0.0	 154.0	 -154.0	 1.03926	 255.0	 0	 307	 65.0	 0.0	 0.0	 0.0	 0.0	 0.0	 0.0	 0.0	 0.0	 0.0	 0.0	 0.0; % NG
	58	 65.0	 -18.328	 120.0	 -90.0	 1.03926	 255.0	 1	 179	 65.0	 0.0	 0.0	 0.0	 0.0	 0.0	 0.0	 0.0	 0.0	 0.0	 0.0	 0.0; % NG
	58	 65.0	 -135.316	 242.0	 -242.0	 1.03926	 255.0	 1	 483	 65.0	 0.0	 0.0	 0.0	 0.0	 0.0	 0.0	 0.0	 0.0	 0.0	 0.0	 0.0; % NG
	59	 207.0	 60.471	 104.0	 -104.0	 1.10999	 85.4	 1	 207	 39.25	 0.0	 0.0	 0.0	 0.0	 0.0	 0.0	 0.0	 0.0	 0.0	 0.0	 0.0; % NG
	78	 70.0	 55.049	 105.0	 -90.0	 1.1095	 248.3	 1	 180	 70.0	 0.0	 0.0	 0.0	 0.0	 0.0	 0.0	 0.0	 0.0	 0.0	 0.0	 0.0; % NG
	78	 201.0	 53.927	 105.0	 -101.0	 1.1095	 248.3	 1	 201	 70.0	 0.0	 0.0	 0.0	 0.0	 0.0	 0.0	 0.0	 0.0	 0.0	 0.0	 0.0; % NG
	79	 0.0	 0.0	 253.0	 -253.0	 1.10928	 243.8	 0	 505	 70.0	 0.0	 0.0	 0.0	 0.0	 0.0	 0.0	 0.0	 0.0	 0.0	 0.0	 0.0; % NG
	79	 0.0	 0.0	 105.0	 -66.0	 1.10928	 248.3	 0	 132	 70.0	 0.0	 0.0	 0.0	 0.0	 0.0	 0.0	 0.0	 0.0	 0.0	 0.0	 0.0; % NG
	79	 70.0	 29.836	 112.0	 -112.0	 1.10928	 248.3	 1	 223	 70.0	 0.0	 0.0	 0.0	 0.0	 0.0	 0.0	 0.0	 0.0	 0.0	 0.0	 0.0; % NG
	82	 110.0	 -9.816	 192.0	 -137.0	 1.03971	 425.8	 1	 274	 110.0	 0.0	 0.0	 0.0	 0.0	 0.0	 0.0	 0.0	 0.0	 0.0	 0.0	 0.0; % COW
	82	 293.0	 -22.107	 174.0	 -147.0	 1.03971	 408.9	 1	 293	 110.0	 0.0	 0.0	 0.0	 0.0	 0.0	 0.0	 0.0	 0.0	 0.0	 0.0	 0.0; % NG
	104	 67.0	 30.097	 172.8	 -172.8	 1.11	 251.8	 1	 145	 67.0	 0.0	 0.0	 0.0	 0.0	 0.0	 0.0	 0.0	 0.0	 0.0	 0.0	 0.0; % NG
	105	 480.0	 -38.654	 240.0	 -240.0	 1.11	 251.8	 1	 480	 67.0	 0.0	 0.0	 0.0	 0.0	 0.0	 0.0	 0.0	 0.0	 0.0	 0.0	 0.0; % NG
	106	 39.5	 -37.18	 90.0	 -46.8	 1.10797	 150.0	 1	 88	 39.5	 0.0	 0.0	 0.0	 0.0	 0.0	 0.0	 0.0	 0.0	 0.0	 0.0	 0.0; % PEL
	107	 302.0	 49.159	 151.0	 -151.0	 1.10807	 150.0	 1	 302	 39.5	 0.0	 0.0	 0.0	 0.0	 0.0	 0.0	 0.0	 0.0	 0.0	 0.0	 0.0; % COW
	116	 0.0	 0.0	 90.0	 -20.0	 1.10999	 150.0	 0	 18	 90.0	 0.0	 0.0	 0.0	 0.0	 0.0	 0.0	 0.0	 0.0	 0.0	 0.0	 0.0; % NG
	117	 291.0	 5.577	 146.0	 -146.0	 1.11	 150.0	 1	 291	 35.0	 0.0	 0.0	 0.0	 0.0	 0.0	 0.0	 0.0	 0.0	 0.0	 0.0	 0.0; % COW
	118	 40.0	 -17.203	 91.0	 -91.0	 1.10671	 129.3	 1	 181	 40.0	 0.0	 0.0	 0.0	 0.0	 0.0	 0.0	 0.0	 0.0	 0.0	 0.0	 0.0; % NG
	125	 606.0	 18.906	 303.0	 -303.0	 1.11	 242.9	 1	 606	 80.0	 0.0	 0.0	 0.0	 0.0	 0.0	 0.0	 0.0	 0.0	 0.0	 0.0	 0.0; % COW
	126	 70.0	 53.707	 134.0	 -134.0	 1.10998	 240.2	 1	 268	 70.0	 0.0	 0.0	 0.0	 0.0	 0.0	 0.0	 0.0	 0.0	 0.0	 0.0	 0.0; % NG
	126	 0.0	 0.0	 80.0	 -77.0	 1.10998	 229.4	 0	 154	 80.0	 0.0	 0.0	 0.0	 0.0	 0.0	 0.0	 0.0	 0.0	 0.0	 0.0	 0.0; % COW
	127	 70.0	 -84.167	 218.0	 -218.0	 1.0347	 238.5	 1	 435	 70.0	 0.0	 0.0	 0.0	 0.0	 0.0	 0.0	 0.0	 0.0	 0.0	 0.0	 0.0; % NG
	127	 493.0	 -104.325	 247.0	 -247.0	 1.0347	 241.7	 1	 493	 80.0	 0.0	 0.0	 0.0	 0.0	 0.0	 0.0	 0.0	 0.0	 0.0	 0.0	 0.0; % NG
	132	 37.0	 11.539	 69.0	 -69.0	 1.10774	 131.2	 1	 138	 37.0	 0.0	 0.0	 0.0	 0.0	 0.0	 0.0	 0.0	 0.0	 0.0	 0.0	 0.0; % NG
	132	 37.0	 5.209	 46.0	 -46.0	 1.10774	 131.2	 1	 91	 37.0	 0.0	 0.0	 0.0	 0.0	 0.0	 0.0	 0.0	 0.0	 0.0	 0.0	 0.0; % NG
	133	 0.0	 0.0	 90.0	 -90.0	 1.10745	 131.2	 0	 179	 37.0	 0.0	 0.0	 0.0	 0.0	 0.0	 0.0	 0.0	 0.0	 0.0	 0.0	 0.0; % NG
	133	 37.0	 4.707	 112.0	 -112.0	 1.10745	 131.2	 1	 224	 37.0	 0.0	 0.0	 0.0	 0.0	 0.0	 0.0	 0.0	 0.0	 0.0	 0.0	 0.0; % NG
	134	 0.0	 0.0	 90.0	 -20.0	 1.10422	 150.0	 0	 40	 102.0	 0.0	 0.0	 0.0	 0.0	 0.0	 0.0	 0.0	 0.0	 0.0	 0.0	 0.0; % NG
	134	 196.0	 -46.018	 98.0	 -98.0	 1.10422	 150.0	 1	 196	 50.0	 0.0	 0.0	 0.0	 0.0	 0.0	 0.0	 0.0	 0.0	 0.0	 0.0	 0.0; % COW
	135	 0.0	 0.0	 106.0	 -106.0	 1.10418	 150.0	 0	 212	 51.0	 0.0	 0.0	 0.0	 0.0	 0.0	 0.0	 0.0	 0.0	 0.0	 0.0	 0.0; % COW
	146	 15.0	 -7.245	 56.0	 -56.0	 1.10297	 51.4	 1	 111	 15.0	 0.0	 0.0	 0.0	 0.0	 0.0	 0.0	 0.0	 0.0	 0.0	 0.0	 0.0; % NG
	146	 15.0	 -11.217	 70.0	 -70.0	 1.10297	 51.4	 1	 139	 15.0	 0.0	 0.0	 0.0	 0.0	 0.0	 0.0	 0.0	 0.0	 0.0	 0.0	 0.0; % NG
	147	 0.0	 0.0	 109.0	 -109.0	 1.10297	 150.0	 0	 218	 45.0	 0.0	 0.0	 0.0	 0.0	 0.0	 0.0	 0.0	 0.0	 0.0	 0.0	 0.0; % NG
	148	 45.0	 6.52	 120.0	 -55.0	 1.10725	 252.4	 1	 110	 45.0	 0.0	 0.0	 0.0	 0.0	 0.0	 0.0	 0.0	 0.0	 0.0	 0.0	 0.0; % NG
	148	 0.0	 0.0	 120.0	 -43.0	 1.10725	 237.5	 0	 86	 67.5	 0.0	 0.0	 0.0	 0.0	 0.0	 0.0	 0.0	 0.0	 0.0	 0.0	 0.0; % NG
	148	 0.0	 0.0	 120.0	 -52.0	 1.10725	 237.5	 0	 104	 67.5	 0.0	 0.0	 0.0	 0.0	 0.0	 0.0	 0.0	 0.0	 0.0	 0.0	 0.0; % COW
	148	 45.0	 -14.728	 120.0	 -82.0	 1.10725	 252.4	 1	 163	 45.0	 0.0	 0.0	 0.0	 0.0	 0.0	 0.0	 0.0	 0.0	 0.0	 0.0	 0.0; % NG
	150	 45.0	 -10.54	 120.0	 -105.6	 1.01888	 252.4	 1	 151	 45.0	 0.0	 0.0	 0.0	 0.0	 0.0	 0.0	 0.0	 0.0	 0.0	 0.0	 0.0; % NG
	151	 107.0	 -8.298	 120.0	 -54.0	 1.01888	 252.4	 1	 107	 45.0	 0.0	 0.0	 0.0	 0.0	 0.0	 0.0	 0.0	 0.0	 0.0	 0.0	 0.0; % NG
	151	 45.0	 -99.493	 155.0	 -155.0	 1.01888	 252.4	 1	 310	 45.0	 0.0	 0.0	 0.0	 0.0	 0.0	 0.0	 0.0	 0.0	 0.0	 0.0	 0.0; % NG
	155	 47.0	 32.461	 169.0	 -169.0	 1.10813	 263.9	 1	 338	 47.0	 0.0	 0.0	 0.0	 0.0	 0.0	 0.0	 0.0	 0.0	 0.0	 0.0	 0.0; % NG
	155	 139.0	 35.52	 120.0	 -70.0	 1.10813	 263.9	 1	 139	 47.0	 0.0	 0.0	 0.0	 0.0	 0.0	 0.0	 0.0	 0.0	 0.0	 0.0	 0.0; % COW
	155	 0.0	 0.0	 158.0	 -158.0	 1.10813	 237.5	 0	 315	 65.0	 0.0	 0.0	 0.0	 0.0	 0.0	 0.0	 0.0	 0.0	 0.0	 0.0	 0.0; % NG
	155	 52.0	 16.666	 120.0	 -120.0	 1.10813	 287.3	 1	 239	 52.0	 0.0	 0.0	 0.0	 0.0	 0.0	 0.0	 0.0	 0.0	 0.0	 0.0	 0.0; % NG
	156	 0.0	 0.0	 289.0	 -289.0	 1.11	 237.5	 0	 578	 65.0	 0.0	 0.0	 0.0	 0.0	 0.0	 0.0	 0.0	 0.0	 0.0	 0.0	 0.0; % COW
	156	 65.0	 22.41	 120.0	 -96.0	 1.11	 237.5	 1	 191	 65.0	 0.0	 0.0	 0.0	 0.0	 0.0	 0.0	 0.0	 0.0	 0.0	 0.0	 0.0; % NG
	156	 60.0	 17.986	 120.0	 -107.0	 1.11	 238.4	 1	 213	 60.0	 0.0	 0.0	 0.0	 0.0	 0.0	 0.0	 0.0	 0.0	 0.0	 0.0	 0.0; % NG
	156	 437.0	 41.644	 219.0	 -219.0	 1.11	 238.4	 1	 437	 60.0	 0.0	 0.0	 0.0	 0.0	 0.0	 0.0	 0.0	 0.0	 0.0	 0.0	 0.0; % NG
	159	 60.0	 -166.965	 167.0	 -167.0	 1.0074	 238.4	 1	 334	 60.0	 0.0	 0.0	 0.0	 0.0	 0.0	 0.0	 0.0	 0.0	 0.0	 0.0	 0.0; % NG
	165	 75.0	 -39.576	 147.0	 -147.0	 1.10295	 233.2	 1	 294	 75.0	 0.0	 0.0	 0.0	 0.0	 0.0	 0.0	 0.0	 0.0	 0.0	 0.0	 0.0; % NG
	165	 75.0	 -17.07	 120.0	 -106.0	 1.10295	 233.2	 1	 212	 75.0	 0.0	 0.0	 0.0	 0.0	 0.0	 0.0	 0.0	 0.0	 0.0	 0.0	 0.0; % NG
	166	 305.0	 22.685	 153.0	 -153.0	 1.10301	 233.2	 1	 305	 75.0	 0.0	 0.0	 0.0	 0.0	 0.0	 0.0	 0.0	 0.0	 0.0	 0.0	 0.0; % NG
	166	 410.0	 40.051	 205.0	 -205.0	 1.10301	 233.2	 1	 410	 75.0	 0.0	 0.0	 0.0	 0.0	 0.0	 0.0	 0.0	 0.0	 0.0	 0.0	 0.0; % NG
	205	 202.0	 -12.409	 110.0	 -101.0	 1.0185	 210.1	 1	 202	 70.0	 0.0	 0.0	 0.0	 0.0	 0.0	 0.0	 0.0	 0.0	 0.0	 0.0	 0.0; % NG
	205	 70.0	 -27.258	 135.0	 -135.0	 1.0185	 210.1	 1	 270	 70.0	 0.0	 0.0	 0.0	 0.0	 0.0	 0.0	 0.0	 0.0	 0.0	 0.0	 0.0; % NG
	205	 0.0	 0.0	 110.0	 -102.0	 1.0185	 210.1	 0	 203	 70.0	 0.0	 0.0	 0.0	 0.0	 0.0	 0.0	 0.0	 0.0	 0.0	 0.0	 0.0; % NG
	206	 211.0	 -71.735	 110.0	 -106.0	 1.01847	 210.1	 1	 211	 70.0	 0.0	 0.0	 0.0	 0.0	 0.0	 0.0	 0.0	 0.0	 0.0	 0.0	 0.0; % NG
	215	 111.234	 -6.11	 73.0	 -73.0	 1.12	 58.5	 1	 146	 18.5395	 0.0	 0.0	 0.0	 0.0	 0.0	 0.0	 0.0	 0.0	 0.0	 0.0	 0.0; % NG
	215	 107.0	 -3.354	 54.0	 -54.0	 1.12	 53.9	 1	 107	 16.854	 0.0	 0.0	 0.0	 0.0	 0.0	 0.0	 0.0	 0.0	 0.0	 0.0	 0.0; % COW
	215	 56.0	 -0.904	 28.0	 -28.0	 1.12	 53.9	 1	 56	 16.854	 0.0	 0.0	 0.0	 0.0	 0.0	 0.0	 0.0	 0.0	 0.0	 0.0	 0.0; % COW
	215	 7.753	 2.666	 20.0	 -14.0	 1.12	 30.5	 1	 27	 7.753	 0.0	 0.0	 0.0	 0.0	 0.0	 0.0	 0.0	 0.0	 0.0	 0.0	 0.0; % PEL
	239	 68.0	 20.894	 34.0	 -34.0	 1.0982	 15.4	 1	 68	 2.0	 0.0	 0.0	 0.0	 0.0	 0.0	 0.0	 0.0	 0.0	 0.0	 0.0	 0.0; % NG
	246	 145.0	 137.521	 591.0	 -591.0	 1.08454	 430.5	 1	 1182	 145.0	 0.0	 0.0	 0.0	 0.0	 0.0	 0.0	 0.0	 0.0	 0.0	 0.0	 0.0; % COW
	291	 1.0	 14.997	 15.0	 -15.0	 1.10922	 3.2	 1	 30	 1.0	 0.0	 0.0	 0.0	 0.0	 0.0	 0.0	 0.0	 0.0	 0.0	 0.0	 0.0; % PEL
	294	 1.5	 5.593	 15.0	 -15.0	 1.09263	 4.8	 1	 30	 1.5	 0.0	 0.0	 0.0	 0.0	 0.0	 0.0	 0.0	 0.0	 0.0	 0.0	 0.0; % PEL
	306	 4.584	 24.853	 37.0	 -37.0	 1.11451	 24.0	 1	 74	 4.5835	 0.0	 0.0	 0.0	 0.0	 0.0	 0.0	 0.0	 0.0	 0.0	 0.0	 0.0; % COW
	306	 8.148	 20.275	 32.0	 -32.0	 1.11451	 27.9	 1	 64	 8.148	 0.0	 0.0	 0.0	 0.0	 0.0	 0.0	 0.0	 0.0	 0.0	 0.0	 0.0; % PEL
	306	 5.602	 9.164	 19.0	 -19.0	 1.11451	 31.0	 1	 38	 5.602	 0.0	 0.0	 0.0	 0.0	 0.0	 0.0	 0.0	 0.0	 0.0	 0.0	 0.0; % PEL
	306	 4.584	 17.588	 29.0	 -29.0	 1.11451	 26.9	 1	 58	 4.5835	 0.0	 0.0	 0.0	 0.0	 0.0	 0.0	 0.0	 0.0	 0.0	 0.0	 0.0; % NG
	306	 4.584	 22.093	 34.0	 -34.0	 1.11451	 28.1	 1	 68	 4.5835	 0.0	 0.0	 0.0	 0.0	 0.0	 0.0	 0.0	 0.0	 0.0	 0.0	 0.0; % NG
	307	 18.25	 27.989	 28.0	 -28.0	 1.11437	 57.0	 1	 56	 18.25	 0.0	 0.0	 0.0	 0.0	 0.0	 0.0	 0.0	 0.0	 0.0	 0.0	 0.0; % PEL
	307	 18.25	 28.989	 29.0	 -29.0	 1.11437	 57.0	 1	 58	 18.25	 0.0	 0.0	 0.0	 0.0	 0.0	 0.0	 0.0	 0.0	 0.0	 0.0	 0.0; % PEL
	308	 16.0	 8.466	 32.0	 -32.0	 1.1161	 36.7	 1	 64	 16.0	 0.0	 0.0	 0.0	 0.0	 0.0	 0.0	 0.0	 0.0	 0.0	 0.0	 0.0; % PEL
	308	 20.0	 29.711	 65.0	 -65.0	 1.1161	 57.7	 1	 130	 20.0	 0.0	 0.0	 0.0	 0.0	 0.0	 0.0	 0.0	 0.0	 0.0	 0.0	 0.0; % PEL
	310	 17.5	 0.341	 23.0	 -23.0	 1.11813	 53.9	 1	 46	 17.5	 0.0	 0.0	 0.0	 0.0	 0.0	 0.0	 0.0	 0.0	 0.0	 0.0	 0.0; % PEL
	310	 242.496	 27.691	 209.0	 -209.0	 1.11813	 103.6	 1	 418	 37.5	 0.0	 0.0	 0.0	 0.0	 0.0	 0.0	 0.0	 0.0	 0.0	 0.0	 0.0; % COW
	311	 22.5	 53.609	 63.0	 -63.0	 1.12	 64.0	 1	 126	 22.5	 0.0	 0.0	 0.0	 0.0	 0.0	 0.0	 0.0	 0.0	 0.0	 0.0	 0.0; % NG
	362	 18.9	 1.551	 39.0	 -39.0	 1.09524	 47.8	 1	 77	 18.9	 0.0	 0.0	 0.0	 0.0	 0.0	 0.0	 0.0	 0.0	 0.0	 0.0	 0.0; % PEL
	363	 179.095	 11.954	 95.0	 -95.0	 1.12	 47.8	 1	 190	 18.9	 0.0	 0.0	 0.0	 0.0	 0.0	 0.0	 0.0	 0.0	 0.0	 0.0	 0.0; % NG
	364	 65.908	 0.16	 76.0	 -76.0	 1.12	 47.8	 1	 151	 18.9	 0.0	 0.0	 0.0	 0.0	 0.0	 0.0	 0.0	 0.0	 0.0	 0.0	 0.0; % NG
	364	 156.0	 0.169	 78.0	 -78.0	 1.12	 71.0	 1	 156	 22.5	 0.0	 0.0	 0.0	 0.0	 0.0	 0.0	 0.0	 0.0	 0.0	 0.0	 0.0; % NG
	365	 188.0	 16.024	 94.0	 -94.0	 1.12	 47.8	 1	 188	 18.9	 0.0	 0.0	 0.0	 0.0	 0.0	 0.0	 0.0	 0.0	 0.0	 0.0	 0.0; % NG
	365	 18.9	 2.026	 33.0	 -33.0	 1.12	 47.8	 1	 66	 18.9	 0.0	 0.0	 0.0	 0.0	 0.0	 0.0	 0.0	 0.0	 0.0	 0.0	 0.0; % PEL
	382	 7.5	 1.764	 20.0	 -20.0	 1.12	 55.9	 1	 40	 7.5	 0.0	 0.0	 0.0	 0.0	 0.0	 0.0	 0.0	 0.0	 0.0	 0.0	 0.0; % NG
	382	 140.0	 59.74	 120.0	 -70.0	 1.12	 255.9	 1	 140	 60.0	 0.0	 0.0	 0.0	 0.0	 0.0	 0.0	 0.0	 0.0	 0.0	 0.0	 0.0; % NG
	383	 7.5	 2.586	 48.0	 -48.0	 1.12	 55.9	 1	 96	 7.5	 0.0	 0.0	 0.0	 0.0	 0.0	 0.0	 0.0	 0.0	 0.0	 0.0	 0.0; % NG
	386	 1.5	 10.809	 41.0	 -41.0	 1.10763	 4.8	 1	 81	 1.5	 0.0	 0.0	 0.0	 0.0	 0.0	 0.0	 0.0	 0.0	 0.0	 0.0	 0.0; % PEL
	421	 2.0	 23.999	 24.0	 -24.0	 1.10015	 7.7	 1	 48	 2.0	 0.0	 0.0	 0.0	 0.0	 0.0	 0.0	 0.0	 0.0	 0.0	 0.0	 0.0; % NG
	431	 20.738	 -12.755	 26.4	 -26.4	 1.09961	 13.6	 1	 40	 3.5	 0.0	 0.0	 0.0	 0.0	 0.0	 0.0	 0.0	 0.0	 0.0	 0.0	 0.0; % NG
	440	 1.25	 9.836	 40.0	 -40.0	 1.07406	 3.6	 1	 79	 1.25	 0.0	 0.0	 0.0	 0.0	 0.0	 0.0	 0.0	 0.0	 0.0	 0.0	 0.0; % PEL
	447	 59.0	 2.761	 30.0	 -30.0	 1.11352	 21.3	 1	 59	 1.75	 0.0	 0.0	 0.0	 0.0	 0.0	 0.0	 0.0	 0.0	 0.0	 0.0	 0.0; % NG
	447	 49.0	 1.922	 25.0	 -25.0	 1.11352	 21.3	 1	 49	 1.75	 0.0	 0.0	 0.0	 0.0	 0.0	 0.0	 0.0	 0.0	 0.0	 0.0	 0.0; % NG
	463	 0.0	 5.609	 9.6	 -9.6	 1.10435	 4.0	 1	 0	 0.0	 0.0	 0.0	 0.0	 0.0	 0.0	 0.0	 0.0	 0.0	 0.0	 0.0	 0.0; % SYNC
	482	 0.7	 8.696	 24.0	 -24.0	 1.06684	 1.7	 1	 40	 0.7	 0.0	 0.0	 0.0	 0.0	 0.0	 0.0	 0.0	 0.0	 0.0	 0.0	 0.0; % PEL
	490	 1.75	 36.995	 37.0	 -37.0	 1.10831	 5.3	 1	 73	 1.75	 0.0	 0.0	 0.0	 0.0	 0.0	 0.0	 0.0	 0.0	 0.0	 0.0	 0.0; % PEL
	522	 0.0	 19.833	 31.2	 -31.2	 1.10243	 1.9	 1	 0	 0.0	 0.0	 0.0	 0.0	 0.0	 0.0	 0.0	 0.0	 0.0	 0.0	 0.0	 0.0; % SYNC
	533	 0.25	 -3.444	 34.0	 -34.0	 1.09855	 1.9	 1	 67	 0.25	 0.0	 0.0	 0.0	 0.0	 0.0	 0.0	 0.0	 0.0	 0.0	 0.0	 0.0; % PEL
	534	 17.945	 28.626	 105.0	 -105.0	 1.10277	 53.9	 1	 210	 17.945	 0.0	 0.0	 0.0	 0.0	 0.0	 0.0	 0.0	 0.0	 0.0	 0.0	 0.0; % NG
	534	 11.043	 7.43	 52.0	 -52.0	 1.10277	 34.9	 1	 103	 11.043	 0.0	 0.0	 0.0	 0.0	 0.0	 0.0	 0.0	 0.0	 0.0	 0.0	 0.0; % NG
	534	 11.043	 0.809	 17.0	 -17.0	 1.10277	 34.9	 1	 34	 11.043	 0.0	 0.0	 0.0	 0.0	 0.0	 0.0	 0.0	 0.0	 0.0	 0.0	 0.0; % PEL
	534	 36.234	 5.35	 44.0	 -44.0	 1.10277	 107.7	 1	 87	 36.2345	 0.0	 0.0	 0.0	 0.0	 0.0	 0.0	 0.0	 0.0	 0.0	 0.0	 0.0; % PEL
	534	 36.235	 18.8	 84.0	 -84.0	 1.10277	 107.7	 1	 168	 36.2345	 0.0	 0.0	 0.0	 0.0	 0.0	 0.0	 0.0	 0.0	 0.0	 0.0	 0.0; % NG
	535	 12.287	 0.307	 19.0	 -19.2	 1.10361	 36.5	 1	 38	 12.2865	 0.0	 0.0	 0.0	 0.0	 0.0	 0.0	 0.0	 0.0	 0.0	 0.0	 0.0; % PEL
	535	 11.902	 3.128	 53.0	 -53.0	 1.10361	 35.6	 1	 106	 11.9025	 0.0	 0.0	 0.0	 0.0	 0.0	 0.0	 0.0	 0.0	 0.0	 0.0	 0.0; % PEL
	535	 47.995	 57.032	 233.0	 -233.0	 1.10361	 128.1	 1	 466	 47.995	 0.0	 0.0	 0.0	 0.0	 0.0	 0.0	 0.0	 0.0	 0.0	 0.0	 0.0; % NG
	535	 40.316	 23.529	 147.0	 -147.0	 1.10361	 108.7	 1	 293	 40.3155	 0.0	 0.0	 0.0	 0.0	 0.0	 0.0	 0.0	 0.0	 0.0	 0.0	 0.0; % NG
	549	 57.0	 13.228	 29.0	 -29.0	 1.10301	 1.7	 1	 57	 0.7	 0.0	 0.0	 0.0	 0.0	 0.0	 0.0	 0.0	 0.0	 0.0	 0.0	 0.0; % NG
	557	 12.862	 6.27	 32.0	 -32.0	 1.10129	 34.4	 1	 64	 12.862	 0.0	 0.0	 0.0	 0.0	 0.0	 0.0	 0.0	 0.0	 0.0	 0.0	 0.0; % NG
	557	 10.592	 33.573	 80.0	 -80.0	 1.10129	 28.5	 1	 160	 10.592	 0.0	 0.0	 0.0	 0.0	 0.0	 0.0	 0.0	 0.0	 0.0	 0.0	 0.0; % NG
	557	 9.835	 3.299	 23.0	 -23.0	 1.10129	 26.5	 1	 45	 9.8355	 0.0	 0.0	 0.0	 0.0	 0.0	 0.0	 0.0	 0.0	 0.0	 0.0	 0.0; % PEL
	557	 11.348	 9.151	 39.0	 -39.0	 1.10129	 30.4	 1	 77	 11.3485	 0.0	 0.0	 0.0	 0.0	 0.0	 0.0	 0.0	 0.0	 0.0	 0.0	 0.0; % PEL
	557	 12.862	 10.526	 42.0	 -42.0	 1.10129	 34.4	 1	 83	 12.862	 0.0	 0.0	 0.0	 0.0	 0.0	 0.0	 0.0	 0.0	 0.0	 0.0	 0.0; % NG
	558	 15.516	 51.572	 86.0	 -86.0	 1.1051	 34.4	 1	 171	 15.516	 0.0	 0.0	 0.0	 0.0	 0.0	 0.0	 0.0	 0.0	 0.0	 0.0	 0.0; % NG
	558	 15.516	 10.05	 32.0	 -32.0	 1.1051	 34.4	 1	 63	 15.516	 0.0	 0.0	 0.0	 0.0	 0.0	 0.0	 0.0	 0.0	 0.0	 0.0	 0.0; % NG
	558	 104.0	 23.453	 52.0	 -52.0	 1.1051	 26.5	 1	 104	 11.4085	 0.0	 0.0	 0.0	 0.0	 0.0	 0.0	 0.0	 0.0	 0.0	 0.0	 0.0; % COW
	558	 15.059	 10.05	 32.0	 -32.0	 1.1051	 34.4	 1	 63	 15.0595	 0.0	 0.0	 0.0	 0.0	 0.0	 0.0	 0.0	 0.0	 0.0	 0.0	 0.0; % PEL
	594	 1.29	 12.597	 23.0	 -23.0	 1.10186	 4.5	 1	 46	 1.29	 0.0	 0.0	 0.0	 0.0	 0.0	 0.0	 0.0	 0.0	 0.0	 0.0	 0.0; % PEL
	601	 63.0	 5.412	 32.0	 -32.0	 1.10522	 5.5	 1	 63	 2.525	 0.0	 0.0	 0.0	 0.0	 0.0	 0.0	 0.0	 0.0	 0.0	 0.0	 0.0; % COW
	622	 231.389	 -12.43	 139.0	 -139.0	 1.12	 114.0	 1	 277	 55.0	 0.0	 0.0	 0.0	 0.0	 0.0	 0.0	 0.0	 0.0	 0.0	 0.0	 0.0; % NG
	622	 0.0	 0.0	 30.0	 0.0	 1.12	 65.3	 0	 0	 0.0	 0.0	 0.0	 0.0	 0.0	 0.0	 0.0	 0.0	 0.0	 0.0	 0.0	 0.0; % SYNC
	626	 1.4	 4.121	 27.0	 -27.0	 1.10366	 3.0	 1	 54	 1.4	 0.0	 0.0	 0.0	 0.0	 0.0	 0.0	 0.0	 0.0	 0.0	 0.0	 0.0; % NG
	630	 2.805	 2.535	 36.0	 -36.0	 1.11749	 6.4	 1	 71	 2.805	 0.0	 0.0	 0.0	 0.0	 0.0	 0.0	 0.0	 0.0	 0.0	 0.0	 0.0; % PEL
	631	 3.365	 14.241	 21.0	 -21.0	 1.1178	 7.4	 1	 41	 3.365	 0.0	 0.0	 0.0	 0.0	 0.0	 0.0	 0.0	 0.0	 0.0	 0.0	 0.0; % NG
	655	 0.615	 1.175	 35.0	 -35.0	 1.09075	 1.3	 1	 70	 0.615	 0.0	 0.0	 0.0	 0.0	 0.0	 0.0	 0.0	 0.0	 0.0	 0.0	 0.0; % PEL
	660	 67.5	 1.626	 120.0	 -101.0	 1.12	 255.0	 1	 201	 67.5	 0.0	 0.0	 0.0	 0.0	 0.0	 0.0	 0.0	 0.0	 0.0	 0.0	 0.0; % NG
	661	 318.0	 31.501	 159.0	 -159.0	 1.12	 255.0	 1	 318	 67.5	 0.0	 0.0	 0.0	 0.0	 0.0	 0.0	 0.0	 0.0	 0.0	 0.0	 0.0; % NG
	667	 0.955	 10.564	 15.6	 -15.6	 1.0791	 2.2	 1	 23	 0.955	 0.0	 0.0	 0.0	 0.0	 0.0	 0.0	 0.0	 0.0	 0.0	 0.0	 0.0; % PEL
	671	 4.765	 21.442	 55.0	 -55.0	 1.10862	 10.1	 1	 109	 4.765	 0.0	 0.0	 0.0	 0.0	 0.0	 0.0	 0.0	 0.0	 0.0	 0.0	 0.0; % PEL
	673	 60.0	 2.667	 30.0	 -30.0	 1.11401	 4.4	 1	 60	 1.68	 0.0	 0.0	 0.0	 0.0	 0.0	 0.0	 0.0	 0.0	 0.0	 0.0	 0.0; % COW
	681	 95.0	 3.966	 120.0	 -120.0	 1.10788	 192.4	 1	 239	 95.0	 0.0	 0.0	 0.0	 0.0	 0.0	 0.0	 0.0	 0.0	 0.0	 0.0	 0.0; % NG
	681	 12.499	 0.689	 50.0	 -50.0	 1.10788	 77.5	 1	 99	 12.499	 0.0	 0.0	 0.0	 0.0	 0.0	 0.0	 0.0	 0.0	 0.0	 0.0	 0.0; % PEL
	687	 5.605	 12.49	 27.0	 -27.0	 1.10473	 12.5	 1	 54	 5.605	 0.0	 0.0	 0.0	 0.0	 0.0	 0.0	 0.0	 0.0	 0.0	 0.0	 0.0; % NG
	699	 3.365	 5.574	 29.0	 -29.0	 1.10387	 7.5	 1	 58	 3.365	 0.0	 0.0	 0.0	 0.0	 0.0	 0.0	 0.0	 0.0	 0.0	 0.0	 0.0; % PEL
	702	 0.56	 3.53	 8.0	 -8.0	 1.10131	 1.6	 1	 15	 0.56	 0.0	 0.0	 0.0	 0.0	 0.0	 0.0	 0.0	 0.0	 0.0	 0.0	 0.0; % PEL
	712	 83.0	 10.071	 42.0	 -42.0	 1.11437	 10.8	 1	 83	 5.0	 0.0	 0.0	 0.0	 0.0	 0.0	 0.0	 0.0	 0.0	 0.0	 0.0	 0.0; % NG
	718	 99.0	 9.96	 50.0	 -50.0	 1.09374	 1.9	 1	 99	 0.785	 0.0	 0.0	 0.0	 0.0	 0.0	 0.0	 0.0	 0.0	 0.0	 0.0	 0.0; % COW
	722	 1.4	 2.718	 16.0	 -16.0	 1.09964	 3.0	 1	 31	 1.4	 0.0	 0.0	 0.0	 0.0	 0.0	 0.0	 0.0	 0.0	 0.0	 0.0	 0.0; % PEL
	731	 0.84	 16.493	 31.0	 -31.0	 1.09279	 4.3	 1	 61	 0.84	 0.0	 0.0	 0.0	 0.0	 0.0	 0.0	 0.0	 0.0	 0.0	 0.0	 0.0; % PEL
	736	 65.0	 5.128	 120.0	 -117.0	 1.11228	 255.0	 1	 234	 65.0	 0.0	 0.0	 0.0	 0.0	 0.0	 0.0	 0.0	 0.0	 0.0	 0.0	 0.0; % NG
	740	 1.12	 7.05	 21.0	 -21.0	 1.1034	 4.3	 1	 41	 1.12	 0.0	 0.0	 0.0	 0.0	 0.0	 0.0	 0.0	 0.0	 0.0	 0.0	 0.0; % PEL
	747	 2.915	 3.985	 54.0	 -54.0	 1.07486	 6.7	 1	 107	 2.915	 0.0	 0.0	 0.0	 0.0	 0.0	 0.0	 0.0	 0.0	 0.0	 0.0	 0.0; % PEL
	759	 186.0	 10.321	 93.0	 -93.0	 1.10719	 105.2	 1	 186	 45.0	 0.0	 0.0	 0.0	 0.0	 0.0	 0.0	 0.0	 0.0	 0.0	 0.0	 0.0; % NG
	760	 0.0	 0.0	 0.0	 0.0	 1.10363	 1.3	 0	 0	 0.0	 0.0	 0.0	 0.0	 0.0	 0.0	 0.0	 0.0	 0.0	 0.0	 0.0	 0.0; % SYNC
	778	 30.0	 13.28	 30.0	 -15.0	 1.09377	 32.4	 1	 30	 6.17	 0.0	 0.0	 0.0	 0.0	 0.0	 0.0	 0.0	 0.0	 0.0	 0.0	 0.0; % NG
	780	 0.84	 7.523	 8.0	 -8.0	 1.11994	 1.9	 1	 16	 0.84	 0.0	 0.0	 0.0	 0.0	 0.0	 0.0	 0.0	 0.0	 0.0	 0.0	 0.0; % PEL
	783	 3.0	 11.218	 29.0	 -29.0	 1.10499	 6.7	 1	 58	 3.0	 0.0	 0.0	 0.0	 0.0	 0.0	 0.0	 0.0	 0.0	 0.0	 0.0	 0.0; % NG
	788	 1.0	 3.648	 22.0	 -22.0	 1.07001	 95.9	 1	 43	 1.0	 0.0	 0.0	 0.0	 0.0	 0.0	 0.0	 0.0	 0.0	 0.0	 0.0	 0.0; % PEL
	792	 0.0	 0.229	 30.0	 -30.0	 1.06816	 71.8	 1	 59	 0.0	 0.0	 0.0	 0.0	 0.0	 0.0	 0.0	 0.0	 0.0	 0.0	 0.0	 0.0; % PEL
	792	 0.0	 0.0	 23.0	 -20.0	 1.06816	 71.8	 0	 39	 0.0	 0.0	 0.0	 0.0	 0.0	 0.0	 0.0	 0.0	 0.0	 0.0	 0.0	 0.0; % PEL
	792	 0.0	 0.0	 229.0	 -229.0	 1.06816	 23.7	 0	 457	 0.0	 0.0	 0.0	 0.0	 0.0	 0.0	 0.0	 0.0	 0.0	 0.0	 0.0	 0.0; % NG
	792	 0.0	 0.0	 43.0	 -43.0	 1.06816	 23.3	 0	 86	 0.0	 0.0	 0.0	 0.0	 0.0	 0.0	 0.0	 0.0	 0.0	 0.0	 0.0	 0.0; % NG
	803	 0.0	 -3.097	 10.0	 -10.8	 1.10132	 55.9	 1	 18	 0.0	 0.0	 0.0	 0.0	 0.0	 0.0	 0.0	 0.0	 0.0	 0.0	 0.0	 0.0; % PEL
	804	 0.0	 21.536	 24.0	 -24.0	 1.10334	 120.4	 1	 16	 0.0	 0.0	 0.0	 0.0	 0.0	 0.0	 0.0	 0.0	 0.0	 0.0	 0.0	 0.0; % COW
	809	 0.0	 0.0	 0.0	 0.0	 1.10572	 3.3	 0	 0	 0.0	 0.0	 0.0	 0.0	 0.0	 0.0	 0.0	 0.0	 0.0	 0.0	 0.0	 0.0; % SYNC
	815	 1.68	 14.379	 25.0	 -25.0	 1.11997	 3.9	 1	 50	 1.68	 0.0	 0.0	 0.0	 0.0	 0.0	 0.0	 0.0	 0.0	 0.0	 0.0	 0.0; % PEL
	834	 0.56	 11.742	 40.0	 -40.0	 1.0829	 1.5	 1	 79	 0.56	 0.0	 0.0	 0.0	 0.0	 0.0	 0.0	 0.0	 0.0	 0.0	 0.0	 0.0; % PEL
	840	 15.0	 21.727	 54.0	 -54.0	 1.09486	 51.6	 1	 107	 15.0	 0.0	 0.0	 0.0	 0.0	 0.0	 0.0	 0.0	 0.0	 0.0	 0.0	 0.0; % NG
	840	 15.0	 22.423	 55.0	 -55.0	 1.09486	 51.6	 1	 110	 15.0	 0.0	 0.0	 0.0	 0.0	 0.0	 0.0	 0.0	 0.0	 0.0	 0.0	 0.0; % PEL
	844	 0.95	 1.709	 13.0	 -13.0	 1.09151	 3.5	 1	 26	 0.95	 0.0	 0.0	 0.0	 0.0	 0.0	 0.0	 0.0	 0.0	 0.0	 0.0	 0.0; % PEL
	848	 1.505	 7.9	 15.0	 -15.0	 1.0952	 5.6	 1	 29	 1.505	 0.0	 0.0	 0.0	 0.0	 0.0	 0.0	 0.0	 0.0	 0.0	 0.0	 0.0; % PEL
	854	 114.0	 9.525	 57.0	 -57.0	 1.12	 14.6	 1	 114	 3.5	 0.0	 0.0	 0.0	 0.0	 0.0	 0.0	 0.0	 0.0	 0.0	 0.0	 0.0; % NG
	873	 34.0	 15.61	 67.0	 -67.0	 1.1139	 87.7	 1	 134	 34.0	 0.0	 0.0	 0.0	 0.0	 0.0	 0.0	 0.0	 0.0	 0.0	 0.0	 0.0; % NG
	876	 0.0	 0.0	 0.0	 0.0	 1.08009	 1.9	 0	 0	 0.0	 0.0	 0.0	 0.0	 0.0	 0.0	 0.0	 0.0	 0.0	 0.0	 0.0	 0.0; % SYNC
	896	 0.0	 0.0	 45.0	 -10.0	 1.10381	 65.8	 0	 0	 0.0	 0.0	 0.0	 0.0	 0.0	 0.0	 0.0	 0.0	 0.0	 0.0	 0.0	 0.0; % SYNC
	896	 0.0	 0.0	 45.0	 -10.0	 1.10381	 71.1	 0	 0	 0.0	 0.0	 0.0	 0.0	 0.0	 0.0	 0.0	 0.0	 0.0	 0.0	 0.0	 0.0; % SYNC
	896	 27.5	 5.812	 59.0	 -59.0	 1.10381	 71.1	 1	 117	 27.5	 0.0	 0.0	 0.0	 0.0	 0.0	 0.0	 0.0	 0.0	 0.0	 0.0	 0.0; % NG
	902	 100.0	 -4.722	 50.0	 -50.0	 1.12	 0.3	 1	 100	 0.0555	 0.0	 0.0	 0.0	 0.0	 0.0	 0.0	 0.0	 0.0	 0.0	 0.0	 0.0; % NG
	903	 0.0	 0.0	 0.0	 0.0	 1.11998	 2.5	 0	 0	 0.0	 0.0	 0.0	 0.0	 0.0	 0.0	 0.0	 0.0	 0.0	 0.0	 0.0	 0.0; % SYNC
	952	 1.3	 4.23	 11.0	 -11.0	 1.09591	 3.0	 1	 22	 1.3	 0.0	 0.0	 0.0	 0.0	 0.0	 0.0	 0.0	 0.0	 0.0	 0.0	 0.0; % PEL
	958	 0.0	 0.0	 0.0	 0.0	 1.08667	 2.5	 0	 0	 0.0	 0.0	 0.0	 0.0	 0.0	 0.0	 0.0	 0.0	 0.0	 0.0	 0.0	 0.0; % SYNC
	972	 13.5	 4.898	 32.0	 -25.0	 1.11128	 54.0	 1	 50	 13.5	 0.0	 0.0	 0.0	 0.0	 0.0	 0.0	 0.0	 0.0	 0.0	 0.0	 0.0; % PEL
	972	 0.0	 0.0	 32.0	 -0.0	 1.11128	 42.5	 0	 0	 0.0	 0.0	 0.0	 0.0	 0.0	 0.0	 0.0	 0.0	 0.0	 0.0	 0.0	 0.0; % SYNC
	972	 1.5	 0.558	 18.0	 -18.0	 1.11128	 11.4	 1	 35	 1.5	 0.0	 0.0	 0.0	 0.0	 0.0	 0.0	 0.0	 0.0	 0.0	 0.0	 0.0; % PEL
	972	 40.0	 34.355	 110.0	 -68.0	 1.11128	 162.2	 1	 136	 40.0	 0.0	 0.0	 0.0	 0.0	 0.0	 0.0	 0.0	 0.0	 0.0	 0.0	 0.0; % NG
	973	 40.0	 34.324	 110.0	 -79.0	 1.11156	 162.2	 1	 157	 40.0	 0.0	 0.0	 0.0	 0.0	 0.0	 0.0	 0.0	 0.0	 0.0	 0.0	 0.0; % NG
...
];

%% generator cost data
%	2	startup	shutdown	n	c(n-1)	...	c0
mpc.gencost = [
	2	 0.0	 0.0	 3	   0.000000	   0.905627	   0.000000; % COW
	2	 0.0	 0.0	 3	   0.000000	   0.832887	   0.000000; % NG
	2	 0.0	 0.0	 3	   0.000000	   0.965616	   0.000000; % COW
	2	 0.0	 0.0	 3	   0.000000	   1.250810	   0.000000; % NG
	2	 0.0	 0.0	 3	   0.000000	   1.205061	   0.000000; % NG
	2	 0.0	 0.0	 3	   0.000000	   0.939293	   0.000000; % NG
	2	 0.0	 0.0	 3	   0.000000	   0.867893	   0.000000; % NG
	2	 0.0	 0.0	 3	   0.000000	   0.927415	   0.000000; % NG
	2	 0.0	 0.0	 3	   0.000000	   0.863822	   0.000000; % NG
	2	 0.0	 0.0	 3	   0.000000	   1.058968	   0.000000; % NG
	2	 0.0	 0.0	 3	   0.000000	   1.219351	   0.000000; % COW
	2	 0.0	 0.0	 3	   0.000000	   0.943984	   0.000000; % NG
	2	 0.0	 0.0	 3	   0.000000	   1.123723	   0.000000; % COW
	2	 0.0	 0.0	 3	   0.000000	   0.596198	   0.000000; % COW
	2	 0.0	 0.0	 3	   0.000000	   0.848219	   0.000000; % COW
	2	 0.0	 0.0	 3	   0.000000	   1.474923	   0.000000; % NG
	2	 0.0	 0.0	 3	   0.000000	   1.208362	   0.000000; % NG
	2	 0.0	 0.0	 3	   0.000000	   1.003648	   0.000000; % NG
	2	 0.0	 0.0	 3	   0.000000	   1.150324	   0.000000; % NG
	2	 0.0	 0.0	 3	   0.000000	   0.649517	   0.000000; % COW
	2	 0.0	 0.0	 3	   0.000000	   0.368936	   0.000000; % COW
	2	 0.0	 0.0	 3	   0.000000	   0.940060	   0.000000; % NG
	2	 0.0	 0.0	 3	   0.000000	   0.332084	   0.000000; % COW
	2	 0.0	 0.0	 3	   0.000000	   0.926020	   0.000000; % NG
	2	 0.0	 0.0	 3	   0.000000	   1.016226	   0.000000; % COW
	2	 0.0	 0.0	 3	   0.000000	   0.952420	   0.000000; % NG
	2	 0.0	 0.0	 3	   0.000000	   0.985224	   0.000000; % NG
	2	 0.0	 0.0	 3	   0.000000	   1.099813	   0.000000; % NG
	2	 0.0	 0.0	 3	   0.000000	   0.748201	   0.000000; % NG
	2	 0.0	 0.0	 3	   0.000000	   1.132051	   0.000000; % NG
	2	 0.0	 0.0	 3	   0.000000	   0.944747	   0.000000; % NG
	2	 0.0	 0.0	 3	   0.000000	   1.340729	   0.000000; % NG
	2	 0.0	 0.0	 3	   0.000000	   1.000131	   0.000000; % NG
	2	 0.0	 0.0	 3	   0.000000	   1.072829	   0.000000; % NG
	2	 0.0	 0.0	 3	   0.000000	   1.413488	   0.000000; % COW
	2	 0.0	 0.0	 3	   0.000000	   0.932687	   0.000000; % NG
	2	 0.0	 0.0	 3	   0.000000	   0.976617	   0.000000; % NG
	2	 0.0	 0.0	 3	   0.000000	   0.842200	   0.000000; % NG
	2	 0.0	 0.0	 3	   0.000000	   7.301986	   0.000000; % PEL
	2	 0.0	 0.0	 3	   0.000000	   0.786274	   0.000000; % COW
	2	 0.0	 0.0	 3	   0.000000	   1.306428	   0.000000; % NG
	2	 0.0	 0.0	 3	   0.000000	   0.748005	   0.000000; % COW
	2	 0.0	 0.0	 3	   0.000000	   1.657598	   0.000000; % NG
	2	 0.0	 0.0	 3	   0.000000	   0.788212	   0.000000; % COW
	2	 0.0	 0.0	 3	   0.000000	   1.093984	   0.000000; % NG
	2	 0.0	 0.0	 3	   0.000000	   0.609249	   0.000000; % COW
	2	 0.0	 0.0	 3	   0.000000	   1.275380	   0.000000; % NG
	2	 0.0	 0.0	 3	   0.000000	   0.807825	   0.000000; % NG
	2	 0.0	 0.0	 3	   0.000000	   1.336254	   0.000000; % NG
	2	 0.0	 0.0	 3	   0.000000	   1.074441	   0.000000; % NG
	2	 0.0	 0.0	 3	   0.000000	   1.183419	   0.000000; % NG
	2	 0.0	 0.0	 3	   0.000000	   1.007658	   0.000000; % NG
	2	 0.0	 0.0	 3	   0.000000	   1.242632	   0.000000; % NG
	2	 0.0	 0.0	 3	   0.000000	   0.509921	   0.000000; % COW
	2	 0.0	 0.0	 3	   0.000000	   0.469343	   0.000000; % COW
	2	 0.0	 0.0	 3	   0.000000	   1.078443	   0.000000; % NG
	2	 0.0	 0.0	 3	   0.000000	   1.200714	   0.000000; % NG
	2	 0.0	 0.0	 3	   0.000000	   0.910806	   0.000000; % NG
	2	 0.0	 0.0	 3	   0.000000	   1.218749	   0.000000; % NG
	2	 0.0	 0.0	 3	   0.000000	   1.019763	   0.000000; % NG
	2	 0.0	 0.0	 3	   0.000000	   1.123248	   0.000000; % COW
	2	 0.0	 0.0	 3	   0.000000	   1.293317	   0.000000; % NG
	2	 0.0	 0.0	 3	   0.000000	   1.186859	   0.000000; % NG
	2	 0.0	 0.0	 3	   0.000000	   1.012004	   0.000000; % NG
	2	 0.0	 0.0	 3	   0.000000	   1.315682	   0.000000; % NG
	2	 0.0	 0.0	 3	   0.000000	   1.129280	   0.000000; % NG
	2	 0.0	 0.0	 3	   0.000000	   0.591168	   0.000000; % COW
	2	 0.0	 0.0	 3	   0.000000	   0.874612	   0.000000; % NG
	2	 0.0	 0.0	 3	   0.000000	   1.413769	   0.000000; % NG
	2	 0.0	 0.0	 3	   0.000000	   0.969516	   0.000000; % COW
	2	 0.0	 0.0	 3	   0.000000	   1.183081	   0.000000; % NG
	2	 0.0	 0.0	 3	   0.000000	   1.072160	   0.000000; % NG
	2	 0.0	 0.0	 3	   0.000000	   0.523107	   0.000000; % NG
	2	 0.0	 0.0	 3	   0.000000	   1.265892	   0.000000; % NG
	2	 0.0	 0.0	 3	   0.000000	   1.359629	   0.000000; % NG
	2	 0.0	 0.0	 3	   0.000000	   1.018314	   0.000000; % NG
	2	 0.0	 0.0	 3	   0.000000	   0.963881	   0.000000; % NG
	2	 0.0	 0.0	 3	   0.000000	   0.925227	   0.000000; % NG
	2	 0.0	 0.0	 3	   0.000000	   0.882571	   0.000000; % NG
	2	 0.0	 0.0	 3	   0.000000	   1.105592	   0.000000; % NG
	2	 0.0	 0.0	 3	   0.000000	   1.030075	   0.000000; % NG
	2	 0.0	 0.0	 3	   0.000000	   0.950912	   0.000000; % NG
	2	 0.0	 0.0	 3	   0.000000	   0.890486	   0.000000; % NG
	2	 0.0	 0.0	 3	   0.000000	   0.525585	   0.000000; % COW
	2	 0.0	 0.0	 3	   0.000000	   0.831932	   0.000000; % COW
	2	 0.0	 0.0	 3	   0.000000	   6.857111	   0.000000; % PEL
	2	 0.0	 0.0	 3	   0.000000	   0.794856	   0.000000; % NG
	2	 0.0	 0.0	 3	   0.000000	   1.069979	   0.000000; % COW
	2	 0.0	 0.0	 3	   0.000000	   6.862996	   0.000000; % PEL
	2	 0.0	 0.0	 3	   0.000000	   6.382716	   0.000000; % PEL
	2	 0.0	 0.0	 3	   0.000000	   1.188409	   0.000000; % COW
	2	 0.0	 0.0	 3	   0.000000	   6.740896	   0.000000; % PEL
	2	 0.0	 0.0	 3	   0.000000	   6.504006	   0.000000; % PEL
	2	 0.0	 0.0	 3	   0.000000	   1.226777	   0.000000; % NG
	2	 0.0	 0.0	 3	   0.000000	   1.131646	   0.000000; % NG
	2	 0.0	 0.0	 3	   0.000000	   6.681230	   0.000000; % PEL
	2	 0.0	 0.0	 3	   0.000000	   6.660937	   0.000000; % PEL
	2	 0.0	 0.0	 3	   0.000000	   6.764841	   0.000000; % PEL
	2	 0.0	 0.0	 3	   0.000000	   7.351799	   0.000000; % PEL
	2	 0.0	 0.0	 3	   0.000000	   7.253332	   0.000000; % PEL
	2	 0.0	 0.0	 3	   0.000000	   0.272204	   0.000000; % COW
	2	 0.0	 0.0	 3	   0.000000	   1.522129	   0.000000; % NG
	2	 0.0	 0.0	 3	   0.000000	   6.559109	   0.000000; % PEL
	2	 0.0	 0.0	 3	   0.000000	   0.563993	   0.000000; % NG
	2	 0.0	 0.0	 3	   0.000000	   0.875968	   0.000000; % NG
	2	 0.0	 0.0	 3	   0.000000	   0.519183	   0.000000; % NG
	2	 0.0	 0.0	 3	   0.000000	   0.743710	   0.000000; % NG
	2	 0.0	 0.0	 3	   0.000000	   6.654492	   0.000000; % PEL
	2	 0.0	 0.0	 3	   0.000000	   1.084582	   0.000000; % NG
	2	 0.0	 0.0	 3	   0.000000	   0.786579	   0.000000; % NG
	2	 0.0	 0.0	 3	   0.000000	   1.106472	   0.000000; % NG
	2	 0.0	 0.0	 3	   0.000000	   7.028668	   0.000000; % PEL
	2	 0.0	 0.0	 3	   0.000000	   1.178586	   0.000000; % NG
	2	 0.0	 0.0	 3	   0.000000	   0.971236	   0.000000; % NG
	2	 0.0	 0.0	 3	   0.000000	   6.871510	   0.000000; % PEL
	2	 0.0	 0.0	 3	   0.000000	   0.865006	   0.000000; % NG
	2	 0.0	 0.0	 3	   0.000000	   0.931174	   0.000000; % NG
	2	 0.0	 0.0	 3	   0.000000	   0.000000	   0.000000; % SYNC
	2	 0.0	 0.0	 3	   0.000000	   7.606181	   0.000000; % PEL
	2	 0.0	 0.0	 3	   0.000000	   6.168469	   0.000000; % PEL
	2	 0.0	 0.0	 3	   0.000000	   0.000000	   0.000000; % SYNC
	2	 0.0	 0.0	 3	   0.000000	   7.423491	   0.000000; % PEL
	2	 0.0	 0.0	 3	   0.000000	   1.051911	   0.000000; % NG
	2	 0.0	 0.0	 3	   0.000000	   1.556818	   0.000000; % NG
	2	 0.0	 0.0	 3	   0.000000	   6.903405	   0.000000; % PEL
	2	 0.0	 0.0	 3	   0.000000	   7.438997	   0.000000; % PEL
	2	 0.0	 0.0	 3	   0.000000	   1.009979	   0.000000; % NG
	2	 0.0	 0.0	 3	   0.000000	   7.232075	   0.000000; % PEL
	2	 0.0	 0.0	 3	   0.000000	   7.434730	   0.000000; % PEL
	2	 0.0	 0.0	 3	   0.000000	   1.078877	   0.000000; % NG
	2	 0.0	 0.0	 3	   0.000000	   1.270285	   0.000000; % NG
	2	 0.0	 0.0	 3	   0.000000	   0.782368	   0.000000; % NG
	2	 0.0	 0.0	 3	   0.000000	   1.075411	   0.000000; % NG
	2	 0.0	 0.0	 3	   0.000000	   1.234123	   0.000000; % NG
	2	 0.0	 0.0	 3	   0.000000	   6.524245	   0.000000; % PEL
	2	 0.0	 0.0	 3	   0.000000	   6.428356	   0.000000; % PEL
	2	 0.0	 0.0	 3	   0.000000	   1.481331	   0.000000; % NG
	2	 0.0	 0.0	 3	   0.000000	   1.060476	   0.000000; % NG
	2	 0.0	 0.0	 3	   0.000000	   1.283691	   0.000000; % NG
	2	 0.0	 0.0	 3	   0.000000	   0.443169	   0.000000; % COW
	2	 0.0	 0.0	 3	   0.000000	   7.217127	   0.000000; % PEL
	2	 0.0	 0.0	 3	   0.000000	   6.676074	   0.000000; % PEL
	2	 0.0	 0.0	 3	   0.000000	   0.528698	   0.000000; % COW
	2	 0.0	 0.0	 3	   0.000000	   0.890265	   0.000000; % NG
	2	 0.0	 0.0	 3	   0.000000	   0.000000	   0.000000; % SYNC
	2	 0.0	 0.0	 3	   0.000000	   1.312944	   0.000000; % NG
	2	 0.0	 0.0	 3	   0.000000	   7.718249	   0.000000; % PEL
	2	 0.0	 0.0	 3	   0.000000	   0.945835	   0.000000; % NG
	2	 0.0	 0.0	 3	   0.000000	   6.588447	   0.000000; % PEL
	2	 0.0	 0.0	 3	   0.000000	   1.114510	   0.000000; % NG
	2	 0.0	 0.0	 3	   0.000000	   0.848640	   0.000000; % NG
	2	 0.0	 0.0	 3	   0.000000	   6.721092	   0.000000; % PEL
	2	 0.0	 0.0	 3	   0.000000	   6.890491	   0.000000; % PEL
	2	 0.0	 0.0	 3	   0.000000	   0.459491	   0.000000; % COW
	2	 0.0	 0.0	 3	   0.000000	   1.208241	   0.000000; % NG
	2	 0.0	 0.0	 3	   0.000000	   7.429957	   0.000000; % PEL
	2	 0.0	 0.0	 3	   0.000000	   1.122781	   0.000000; % NG
	2	 0.0	 0.0	 3	   0.000000	   6.345286	   0.000000; % PEL
	2	 0.0	 0.0	 3	   0.000000	   7.325512	   0.000000; % PEL
	2	 0.0	 0.0	 3	   0.000000	   0.692449	   0.000000; % NG
	2	 0.0	 0.0	 3	   0.000000	   0.518028	   0.000000; % COW
	2	 0.0	 0.0	 3	   0.000000	   6.527969	   0.000000; % PEL
	2	 0.0	 0.0	 3	   0.000000	   6.475322	   0.000000; % PEL
	2	 0.0	 0.0	 3	   0.000000	   1.294842	   0.000000; % NG
	2	 0.0	 0.0	 3	   0.000000	   7.029072	   0.000000; % PEL
	2	 0.0	 0.0	 3	   0.000000	   7.037456	   0.000000; % PEL
	2	 0.0	 0.0	 3	   0.000000	   0.884656	   0.000000; % NG
	2	 0.0	 0.0	 3	   0.000000	   0.000000	   0.000000; % SYNC
	2	 0.0	 0.0	 3	   0.000000	   0.749823	   0.000000; % NG
	2	 0.0	 0.0	 3	   0.000000	   7.211201	   0.000000; % PEL
	2	 0.0	 0.0	 3	   0.000000	   1.047227	   0.000000; % NG
	2	 0.0	 0.0	 3	   0.000000	   6.785727	   0.000000; % PEL
	2	 0.0	 0.0	 3	   0.000000	   6.838912	   0.000000; % PEL
	2	 0.0	 0.0	 3	   0.000000	   6.718600	   0.000000; % PEL
	2	 0.0	 0.0	 3	   0.000000	   1.066617	   0.000000; % NG
	2	 0.0	 0.0	 3	   0.000000	   1.432108	   0.000000; % NG
	2	 0.0	 0.0	 3	   0.000000	   7.168965	   0.000000; % PEL
	2	 0.0	 0.0	 3	   0.000000	   0.952785	   0.000000; % COW
	2	 0.0	 0.0	 3	   0.000000	   0.000000	   0.000000; % SYNC
	2	 0.0	 0.0	 3	   0.000000	   6.507644	   0.000000; % PEL
	2	 0.0	 0.0	 3	   0.000000	   6.252824	   0.000000; % PEL
	2	 0.0	 0.0	 3	   0.000000	   1.244899	   0.000000; % NG
	2	 0.0	 0.0	 3	   0.000000	   6.521104	   0.000000; % PEL
	2	 0.0	 0.0	 3	   0.000000	   6.683877	   0.000000; % PEL
	2	 0.0	 0.0	 3	   0.000000	   7.258412	   0.000000; % PEL
	2	 0.0	 0.0	 3	   0.000000	   0.895555	   0.000000; % NG
	2	 0.0	 0.0	 3	   0.000000	   0.992642	   0.000000; % NG
	2	 0.0	 0.0	 3	   0.000000	   0.000000	   0.000000; % SYNC
	2	 0.0	 0.0	 3	   0.000000	   0.000000	   0.000000; % SYNC
	2	 0.0	 0.0	 3	   0.000000	   0.000000	   0.000000; % SYNC
	2	 0.0	 0.0	 3	   0.000000	   1.168003	   0.000000; % NG
	2	 0.0	 0.0	 3	   0.000000	   0.839195	   0.000000; % NG
	2	 0.0	 0.0	 3	   0.000000	   0.000000	   0.000000; % SYNC
	2	 0.0	 0.0	 3	   0.000000	   7.054906	   0.000000; % PEL
	2	 0.0	 0.0	 3	   0.000000	   0.000000	   0.000000; % SYNC
	2	 0.0	 0.0	 3	   0.000000	   7.449088	   0.000000; % PEL
	2	 0.0	 0.0	 3	   0.000000	   0.000000	   0.000000; % SYNC
	2	 0.0	 0.0	 3	   0.000000	   7.381073	   0.000000; % PEL
	2	 0.0	 0.0	 3	   0.000000	   1.006727	   0.000000; % NG
	2	 0.0	 0.0	 3	   0.000000	   1.027332	   0.000000; % NG
...
];

%% branch data
%	fbus	tbus	r	x	b	rateA	rateB	rateC	ratio	angle	status	angmin	angmax
mpc.branch = [
	7	 8	 0.00064	 0.0305	 0.0	 400.0	 400.0	 400.0	 1.0435	 -0.6	 1	 -30.0	 30.0;
	26	 28	 0.00036	 0.02519	 0.0	 500.0	 500.0	 500.0	 1.0565	 0.0	 1	 -30.0	 30.0;
	27	 29	 0.00036	 0.02519	 0.0	 500.0	 500.0	 500.0	 1.0566	 0.0	 1	 -30.0	 30.0;
	40	 42	 0.00034	 0.02097	 0.0	 500.0	 500.0	 500.0	 1.068	 0.0	 1	 -30.0	 30.0;
	43	 46	 0.00034	 0.02097	 0.0	 500.0	 500.0	 500.0	 1.0569	 0.0	 1	 -30.0	 30.0;
	55	 57	 0.00081	 0.03	 0.0	 400.0	 400.0	 400.0	 1.0765	 0.0	 1	 -30.0	 30.0;
	90	 92	 0.00075	 0.02444	 -0.00832	 330.0	 330.0	 330.0	 1.0631	 0.0	 1	 -30.0	 30.0;
	91	 93	 0.00075	 0.02469	 -0.008	 330.0	 330.0	 330.0	 1.0632	 0.0	 1	 -30.0	 30.0;
	125	 128	 0.0005	 0.02875	 -0.016	 400.0	 400.0	 400.0	 1.0639	 0.0	 1	 -30.0	 30.0;
	149	 150	 0.00064	 0.0305	 0.0	 400.0	 400.0	 400.0	 1.0826	 0.0	 1	 -30.0	 30.0;
	155	 158	 0.000232	 0.023	 0.0	 500.0	 500.0	 500.0	 1.089	 0.0	 1	 -30.0	 30.0;
	156	 159	 0.000232	 0.023	 0.0	 500.0	 500.0	 500.0	 1.0893	 0.0	 1	 -30.0	 30.0;
	170	 172	 0.00035	 0.02375	 0.0	 500.0	 500.0	 500.0	 1.1049	 0.0	 1	 -30.0	 30.0;
	183	 184	 0.00059	 0.03093	 0.0	 400.0	 400.0	 400.0	 1.091	 0.0	 1	 -30.0	 30.0;
	190	 192	 0.0004	 0.03	 0.0	 500.0	 500.0	 500.0	 1.1321	 0.0	 1	 -30.0	 30.0;
	2735	 158	 0.00031	 0.00338	 0.0992	 1386.0	 1386.0	 1386.0	 0.0	 0.0	 1	 -30.0	 30.0;
	2735	 159	 0.00031	 0.00338	 0.0992	 1386.0	 1386.0	 1386.0	 0.0	 0.0	 1	 -30.0	 30.0;
	2736	 68	 0.014341	 0.083531	 0.126034	 415.0	 415.0	 415.0	 0.0	 0.0	 1	 -30.0	 30.0;
	2734	 76	 0.01219	 0.070659	 0.117418	 412.0	 412.0	 412.0	 0.0	 0.0	 1	 -30.0	 30.0;
	2734	 105	 0.011781	 0.07087	 0.116838	 412.0	 412.0	 412.0	 0.0	 0.0	 1	 -30.0	 30.0;
	2739	 200	 9e-06	 9.4e-05	 0.0	 924.0	 924.0	 924.0	 0.0	 0.0	 1	 -30.0	 30.0;
	128	 2732	 0.0015	 0.01469	 0.40384	 1386.0	 1386.0	 1386.0	 0.0	 0.0	 0	 -30.0	 30.0;
	127	 2733	 0.001419	 0.014675	 0.4896	 1386.0	 1386.0	 1386.0	 0.0	 0.0	 1	 -30.0	 30.0;
	2737	 148	 0.001651	 0.015909	 0.046948	 373.0	 373.0	 373.0	 0.0	 0.0	 1	 -30.0	 30.0;
	2737	 149	 0.001651	 0.015909	 0.046948	 373.0	 373.0	 373.0	 0.0	 0.0	 1	 -30.0	 30.0;
	2738	 48	 0.00188	 0.02287	 0.6432	 831.0	 831.0	 831.0	 0.0	 0.0	 1	 -30.0	 30.0;
	2738	 49	 0.00188	 0.02287	 0.6432	 831.0	 831.0	 831.0	 0.0	 0.0	 1	 -30.0	 30.0;
	82	 2732	 0.003519	 0.039313	 1.0336	 1621.0	 1621.0	 1621.0	 0.0	 0.0	 1	 -30.0	 30.0;
	43	 23	 0.01345	 0.081141	 0.141134	 339.0	 339.0	 339.0	 0.0	 0.0	 1	 -30.0	 30.0;
	26	 90	 0.009091	 0.062401	 0.111417	 457.0	 457.0	 457.0	 0.0	 0.0	 1	 -30.0	 30.0;
	27	 91	 0.00868	 0.06405	 0.096994	 457.0	 457.0	 457.0	 0.0	 0.0	 1	 -30.0	 30.0;
	146	 30	 0.016961	 0.123659	 0.196988	 373.0	 373.0	 373.0	 0.0	 0.0	 1	 -30.0	 30.0;
	135	 34	 0.00512	 0.02618	 0.029621	 335.0	 335.0	 335.0	 0.0	 0.0	 1	 -30.0	 30.0;
	134	 20	 0.01068	 0.061961	 0.094961	 415.0	 415.0	 415.0	 0.0	 0.0	 1	 -30.0	 30.0;
	165	 21	 0.014651	 0.105891	 0.170852	 373.0	 373.0	 373.0	 0.0	 0.0	 1	 -30.0	 30.0;
	41	 109	 0.01488	 0.08161	 0.114805	 347.0	 347.0	 347.0	 0.0	 0.0	 1	 -30.0	 30.0;
	40	 91	 0.011159	 0.07231	 0.103673	 362.0	 362.0	 362.0	 0.0	 0.0	 1	 -30.0	 30.0;
	179	 83	 0.008616	 0.077645	 0.122239	 373.0	 373.0	 373.0	 0.0	 0.0	 1	 -30.0	 30.0;
	203	 166	 0.01176	 0.068289	 0.102802	 362.0	 362.0	 362.0	 0.0	 0.0	 1	 -30.0	 30.0;
	194	 166	 0.016818	 0.089091	 0.129935	 400.0	 400.0	 400.0	 0.0	 0.0	 1	 -30.0	 30.0;
	193	 165	 0.013843	 0.087025	 0.134842	 427.0	 427.0	 427.0	 0.0	 0.0	 1	 -30.0	 30.0;
	207	 168	 0.01676	 0.097169	 0.148685	 274.0	 274.0	 274.0	 0.0	 0.0	 1	 -30.0	 30.0;
	43	 12	 0.01269	 0.074979	 0.130196	 377.0	 377.0	 377.0	 0.0	 0.0	 1	 -30.0	 30.0;
	198	 18	 0.014091	 0.10413	 0.15972	 373.0	 373.0	 373.0	 0.0	 0.0	 1	 -30.0	 30.0;
	100	 55	 0.003719	 0.0438	 0.100962	 457.0	 457.0	 457.0	 0.0	 0.0	 1	 -30.0	 30.0;
	163	 82	 0.00194	 0.02056	 0.51584	 1316.0	 1316.0	 1316.0	 0.0	 0.0	 1	 -30.0	 30.0;
	45	 9	 0.0015	 0.01506	 0.4032	 1386.0	 1386.0	 1386.0	 0.0	 0.0	 1	 -30.0	 30.0;
	185	 151	 0.00294	 0.03463	 0.9216	 693.0	 693.0	 693.0	 0.0	 0.0	 1	 -30.0	 30.0;
	121	 57	 0.00169	 0.01994	 0.50624	 831.0	 831.0	 831.0	 0.0	 0.0	 1	 -30.0	 30.0;
	29	 93	 0.00137	 0.01625	 0.41184	 1386.0	 1386.0	 1386.0	 0.0	 0.0	 1	 -30.0	 30.0;
...